/*---------------------------------------------------------------------------*\
| =========                 |                                                 |
| \\      /  F ield         | OpenFOAM: The Open Source CFD Toolbox           |
|  \\    /   O peration     | Version:  2506                                  |
|   \\  /    A nd           | Website:  www.openfoam.com                      |
|    \\/     M anipulation  |                                                 |
\*---------------------------------------------------------------------------*/
Build  : _615aae61-20250627 OPENFOAM=2506 version=2506
Arch   : "LSB;label=32;scalar=64"
Exec   : simpleFoam -noFunctionObjects -case /home/ubuntu/fan_CFD_dataset/cases/fan_1
Date   : Nov 07 2025
Time   : 14:38:33
Host   : ip-172-31-37-87
PID    : 167645
I/O    : uncollated
Case   : /home/ubuntu/fan_CFD_dataset/cases/fan_1
nProcs : 1
trapFpe: Floating point exception trapping enabled (FOAM_SIGFPE).
fileModificationChecking : Monitoring run-time modified files using timeStampMaster (fileModificationSkew 5, maxFileModificationPolls 20)
allowSystemOperations : Allowing user-supplied system call operations

// * * * * * * * * * * * * * * * * * * * * * * * * * * * * * * * * * * * * * //
Create time

Create mesh for time = 0


SIMPLE: convergence criteria
    field U	 tolerance 1e-05
    field p	 tolerance 0.0001

Reading field p

Reading field U

Reading/calculating face flux field phi

Selecting incompressible transport model Newtonian
Selecting turbulence model type laminar
Selecting laminar stress model Stokes
No MRF models present

No finite volume options present

Starting time loop

Time = 1

smoothSolver:  Solving for Ux, Initial residual = 1, Final residual = 0.00029089, No Iterations 2
smoothSolver:  Solving for Uy, Initial residual = 1, Final residual = 0.000272977, No Iterations 2
smoothSolver:  Solving for Uz, Initial residual = 1, Final residual = 0.000550817, No Iterations 2
GAMG:  Solving for p, Initial residual = 1, Final residual = 0.0658589, No Iterations 3
GAMG:  Solving for p, Initial residual = 0.119565, Final residual = 0.00784082, No Iterations 1
GAMG:  Solving for p, Initial residual = 0.0300079, Final residual = 0.00289586, No Iterations 1
GAMG:  Solving for p, Initial residual = 0.0156232, Final residual = 0.000661406, No Iterations 2
GAMG:  Solving for p, Initial residual = 0.0107378, Final residual = 0.000771442, No Iterations 1
time step continuity errors : sum local = 7.60282, global = -2.77419, cumulative = -2.77419
ExecutionTime = 0.27 s  ClockTime = 0 s

Time = 2

smoothSolver:  Solving for Ux, Initial residual = 0.0842151, Final residual = 3.14947e-05, No Iterations 2
smoothSolver:  Solving for Uy, Initial residual = 0.0874852, Final residual = 3.20299e-05, No Iterations 2
smoothSolver:  Solving for Uz, Initial residual = 0.177797, Final residual = 5.71004e-05, No Iterations 2
GAMG:  Solving for p, Initial residual = 0.609402, Final residual = 0.0446381, No Iterations 3
GAMG:  Solving for p, Initial residual = 0.109111, Final residual = 0.00737369, No Iterations 1
GAMG:  Solving for p, Initial residual = 0.0328318, Final residual = 0.00293731, No Iterations 1
GAMG:  Solving for p, Initial residual = 0.0181768, Final residual = 0.00172982, No Iterations 1
GAMG:  Solving for p, Initial residual = 0.0112989, Final residual = 0.00111084, No Iterations 1
time step continuity errors : sum local = 11.0297, global = -2.94999, cumulative = -5.72418
ExecutionTime = 0.35 s  ClockTime = 0 s

Time = 3

smoothSolver:  Solving for Ux, Initial residual = 0.174791, Final residual = 8.31425e-05, No Iterations 2
smoothSolver:  Solving for Uy, Initial residual = 0.174252, Final residual = 8.32781e-05, No Iterations 2
smoothSolver:  Solving for Uz, Initial residual = 0.452141, Final residual = 0.00016782, No Iterations 2
GAMG:  Solving for p, Initial residual = 0.139543, Final residual = 0.0136563, No Iterations 2
GAMG:  Solving for p, Initial residual = 0.0904574, Final residual = 0.0059673, No Iterations 1
GAMG:  Solving for p, Initial residual = 0.0273932, Final residual = 0.00120076, No Iterations 2
GAMG:  Solving for p, Initial residual = 0.0206113, Final residual = 0.00138014, No Iterations 1
GAMG:  Solving for p, Initial residual = 0.00852586, Final residual = 0.000363289, No Iterations 2
time step continuity errors : sum local = 2.05942, global = -0.358763, cumulative = -6.08294
ExecutionTime = 0.43 s  ClockTime = 0 s

Time = 4

smoothSolver:  Solving for Ux, Initial residual = 0.170895, Final residual = 7.92349e-05, No Iterations 2
smoothSolver:  Solving for Uy, Initial residual = 0.170749, Final residual = 7.83849e-05, No Iterations 2
smoothSolver:  Solving for Uz, Initial residual = 0.518309, Final residual = 0.000198365, No Iterations 2
GAMG:  Solving for p, Initial residual = 0.06555, Final residual = 0.00509811, No Iterations 1
GAMG:  Solving for p, Initial residual = 0.0207394, Final residual = 0.00101391, No Iterations 2
GAMG:  Solving for p, Initial residual = 0.0163866, Final residual = 0.0010871, No Iterations 1
GAMG:  Solving for p, Initial residual = 0.00703802, Final residual = 0.000689093, No Iterations 1
GAMG:  Solving for p, Initial residual = 0.00476019, Final residual = 0.000471898, No Iterations 1
time step continuity errors : sum local = 1.64252, global = -0.438261, cumulative = -6.52121
ExecutionTime = 0.51 s  ClockTime = 0 s

Time = 5

smoothSolver:  Solving for Ux, Initial residual = 0.129309, Final residual = 5.70964e-05, No Iterations 2
smoothSolver:  Solving for Uy, Initial residual = 0.129487, Final residual = 5.59549e-05, No Iterations 2
smoothSolver:  Solving for Uz, Initial residual = 0.479321, Final residual = 0.000177822, No Iterations 2
GAMG:  Solving for p, Initial residual = 0.0703765, Final residual = 0.00486853, No Iterations 2
GAMG:  Solving for p, Initial residual = 0.156128, Final residual = 0.0105353, No Iterations 1
GAMG:  Solving for p, Initial residual = 0.0628197, Final residual = 0.00283198, No Iterations 2
GAMG:  Solving for p, Initial residual = 0.0733985, Final residual = 0.00497942, No Iterations 1
GAMG:  Solving for p, Initial residual = 0.0321486, Final residual = 0.00134913, No Iterations 2
time step continuity errors : sum local = 1.01712, global = 0.192043, cumulative = -6.32916
ExecutionTime = 0.6 s  ClockTime = 0 s

Time = 6

smoothSolver:  Solving for Ux, Initial residual = 0.0895258, Final residual = 3.82483e-05, No Iterations 2
smoothSolver:  Solving for Uy, Initial residual = 0.0896823, Final residual = 3.73067e-05, No Iterations 2
smoothSolver:  Solving for Uz, Initial residual = 0.375739, Final residual = 0.000136353, No Iterations 2
GAMG:  Solving for p, Initial residual = 0.0938665, Final residual = 0.00448095, No Iterations 3
GAMG:  Solving for p, Initial residual = 0.220942, Final residual = 0.0149466, No Iterations 1
GAMG:  Solving for p, Initial residual = 0.0723566, Final residual = 0.00690208, No Iterations 1
GAMG:  Solving for p, Initial residual = 0.0380252, Final residual = 0.00157019, No Iterations 2
GAMG:  Solving for p, Initial residual = 0.0255048, Final residual = 0.00181122, No Iterations 1
time step continuity errors : sum local = 4.08836, global = 1.20772, cumulative = -5.12144
ExecutionTime = 0.68 s  ClockTime = 0 s

Time = 7

smoothSolver:  Solving for Ux, Initial residual = 0.0583526, Final residual = 2.62512e-05, No Iterations 2
smoothSolver:  Solving for Uy, Initial residual = 0.0583667, Final residual = 2.56174e-05, No Iterations 2
smoothSolver:  Solving for Uz, Initial residual = 0.22059, Final residual = 8.32313e-05, No Iterations 2
GAMG:  Solving for p, Initial residual = 0.142656, Final residual = 0.00736045, No Iterations 3
GAMG:  Solving for p, Initial residual = 0.168661, Final residual = 0.0113441, No Iterations 1
GAMG:  Solving for p, Initial residual = 0.051278, Final residual = 0.00484982, No Iterations 1
GAMG:  Solving for p, Initial residual = 0.0274317, Final residual = 0.00273489, No Iterations 1
GAMG:  Solving for p, Initial residual = 0.0161419, Final residual = 0.000696048, No Iterations 2
time step continuity errors : sum local = 2.35877, global = 0.426678, cumulative = -4.69476
ExecutionTime = 0.77 s  ClockTime = 0 s

Time = 8

smoothSolver:  Solving for Ux, Initial residual = 0.0441348, Final residual = 2.16363e-05, No Iterations 2
smoothSolver:  Solving for Uy, Initial residual = 0.0441294, Final residual = 2.17896e-05, No Iterations 2
smoothSolver:  Solving for Uz, Initial residual = 0.0857438, Final residual = 3.98e-05, No Iterations 2
GAMG:  Solving for p, Initial residual = 0.31636, Final residual = 0.0149354, No Iterations 3
GAMG:  Solving for p, Initial residual = 0.134341, Final residual = 0.00895878, No Iterations 1
GAMG:  Solving for p, Initial residual = 0.0400505, Final residual = 0.00374873, No Iterations 1
GAMG:  Solving for p, Initial residual = 0.0218243, Final residual = 0.00217009, No Iterations 1
GAMG:  Solving for p, Initial residual = 0.013094, Final residual = 0.000573889, No Iterations 2
time step continuity errors : sum local = 2.12705, global = 0.392899, cumulative = -4.30186
ExecutionTime = 0.85 s  ClockTime = 0 s

Time = 9

smoothSolver:  Solving for Ux, Initial residual = 0.0497248, Final residual = 2.45662e-05, No Iterations 2
smoothSolver:  Solving for Uy, Initial residual = 0.0499283, Final residual = 2.50516e-05, No Iterations 2
smoothSolver:  Solving for Uz, Initial residual = 0.134007, Final residual = 5.28313e-05, No Iterations 2
GAMG:  Solving for p, Initial residual = 0.229753, Final residual = 0.0171391, No Iterations 2
GAMG:  Solving for p, Initial residual = 0.0992164, Final residual = 0.00661362, No Iterations 1
GAMG:  Solving for p, Initial residual = 0.0323803, Final residual = 0.00141833, No Iterations 2
GAMG:  Solving for p, Initial residual = 0.0238452, Final residual = 0.00160399, No Iterations 1
GAMG:  Solving for p, Initial residual = 0.0103603, Final residual = 0.000443847, No Iterations 2
time step continuity errors : sum local = 1.40182, global = 0.255563, cumulative = -4.0463
ExecutionTime = 0.94 s  ClockTime = 1 s

Time = 10

smoothSolver:  Solving for Ux, Initial residual = 0.0626673, Final residual = 3.01488e-05, No Iterations 2
smoothSolver:  Solving for Uy, Initial residual = 0.0628355, Final residual = 3.05211e-05, No Iterations 2
smoothSolver:  Solving for Uz, Initial residual = 0.249925, Final residual = 9.08665e-05, No Iterations 2
GAMG:  Solving for p, Initial residual = 0.155874, Final residual = 0.013043, No Iterations 1
GAMG:  Solving for p, Initial residual = 0.0498052, Final residual = 0.00246075, No Iterations 2
GAMG:  Solving for p, Initial residual = 0.0347967, Final residual = 0.00232993, No Iterations 1
GAMG:  Solving for p, Initial residual = 0.0141932, Final residual = 0.00140838, No Iterations 1
GAMG:  Solving for p, Initial residual = 0.00934358, Final residual = 0.000929427, No Iterations 1
time step continuity errors : sum local = 1.8257, global = 0.519821, cumulative = -3.52648
ExecutionTime = 1.02 s  ClockTime = 1 s

Time = 11

smoothSolver:  Solving for Ux, Initial residual = 0.0709303, Final residual = 3.36321e-05, No Iterations 2
smoothSolver:  Solving for Uy, Initial residual = 0.0707159, Final residual = 3.31611e-05, No Iterations 2
smoothSolver:  Solving for Uz, Initial residual = 0.311195, Final residual = 0.000110379, No Iterations 2
GAMG:  Solving for p, Initial residual = 0.138892, Final residual = 0.0120367, No Iterations 1
GAMG:  Solving for p, Initial residual = 0.0604308, Final residual = 0.00280991, No Iterations 2
GAMG:  Solving for p, Initial residual = 0.0551457, Final residual = 0.0035791, No Iterations 1
GAMG:  Solving for p, Initial residual = 0.021505, Final residual = 0.000911753, No Iterations 2
GAMG:  Solving for p, Initial residual = 0.0184514, Final residual = 0.00127175, No Iterations 1
time step continuity errors : sum local = 0.987073, global = -0.289009, cumulative = -3.81549
ExecutionTime = 1.1 s  ClockTime = 1 s

Time = 12

smoothSolver:  Solving for Ux, Initial residual = 0.0713137, Final residual = 3.4575e-05, No Iterations 2
smoothSolver:  Solving for Uy, Initial residual = 0.0711303, Final residual = 3.42688e-05, No Iterations 2
smoothSolver:  Solving for Uz, Initial residual = 0.298723, Final residual = 0.000107093, No Iterations 2
GAMG:  Solving for p, Initial residual = 0.14433, Final residual = 0.00807124, No Iterations 2
GAMG:  Solving for p, Initial residual = 0.2492, Final residual = 0.0167287, No Iterations 1
GAMG:  Solving for p, Initial residual = 0.0827306, Final residual = 0.00364431, No Iterations 2
GAMG:  Solving for p, Initial residual = 0.0525484, Final residual = 0.0035368, No Iterations 1
GAMG:  Solving for p, Initial residual = 0.0206102, Final residual = 0.000848703, No Iterations 2
time step continuity errors : sum local = 0.740005, global = -0.151659, cumulative = -3.96715
ExecutionTime = 1.18 s  ClockTime = 1 s

Time = 13

smoothSolver:  Solving for Ux, Initial residual = 0.0632843, Final residual = 3.17344e-05, No Iterations 2
smoothSolver:  Solving for Uy, Initial residual = 0.0630467, Final residual = 3.15145e-05, No Iterations 2
smoothSolver:  Solving for Uz, Initial residual = 0.20734, Final residual = 7.79829e-05, No Iterations 2
GAMG:  Solving for p, Initial residual = 0.176893, Final residual = 0.0132114, No Iterations 2
GAMG:  Solving for p, Initial residual = 0.1758, Final residual = 0.0119395, No Iterations 1
GAMG:  Solving for p, Initial residual = 0.0560441, Final residual = 0.00249795, No Iterations 2
GAMG:  Solving for p, Initial residual = 0.0379484, Final residual = 0.00256811, No Iterations 1
GAMG:  Solving for p, Initial residual = 0.015132, Final residual = 0.000635296, No Iterations 2
time step continuity errors : sum local = 0.969397, global = -0.19073, cumulative = -4.15788
ExecutionTime = 1.26 s  ClockTime = 1 s

Time = 14

smoothSolver:  Solving for Ux, Initial residual = 0.0530396, Final residual = 2.82481e-05, No Iterations 2
smoothSolver:  Solving for Uy, Initial residual = 0.0530052, Final residual = 2.79402e-05, No Iterations 2
smoothSolver:  Solving for Uz, Initial residual = 0.0927643, Final residual = 4.39463e-05, No Iterations 2
GAMG:  Solving for p, Initial residual = 0.28263, Final residual = 0.023143, No Iterations 2
GAMG:  Solving for p, Initial residual = 0.139413, Final residual = 0.00950746, No Iterations 1
GAMG:  Solving for p, Initial residual = 0.0438176, Final residual = 0.00194767, No Iterations 2
GAMG:  Solving for p, Initial residual = 0.0309522, Final residual = 0.00210696, No Iterations 1
GAMG:  Solving for p, Initial residual = 0.0126546, Final residual = 0.000533569, No Iterations 2
time step continuity errors : sum local = 0.947342, global = -0.182512, cumulative = -4.34039
ExecutionTime = 1.35 s  ClockTime = 1 s

Time = 15

smoothSolver:  Solving for Ux, Initial residual = 0.0469616, Final residual = 2.53637e-05, No Iterations 2
smoothSolver:  Solving for Uy, Initial residual = 0.0469923, Final residual = 2.52812e-05, No Iterations 2
smoothSolver:  Solving for Uz, Initial residual = 0.0779142, Final residual = 3.75807e-05, No Iterations 2
GAMG:  Solving for p, Initial residual = 0.31091, Final residual = 0.0228206, No Iterations 2
GAMG:  Solving for p, Initial residual = 0.107125, Final residual = 0.00735438, No Iterations 1
GAMG:  Solving for p, Initial residual = 0.0345651, Final residual = 0.00155265, No Iterations 2
GAMG:  Solving for p, Initial residual = 0.025439, Final residual = 0.00174615, No Iterations 1
GAMG:  Solving for p, Initial residual = 0.0107553, Final residual = 0.000460607, No Iterations 2
time step continuity errors : sum local = 0.7456, global = -0.140274, cumulative = -4.48066
ExecutionTime = 1.44 s  ClockTime = 1 s

Time = 16

smoothSolver:  Solving for Ux, Initial residual = 0.0446389, Final residual = 2.37186e-05, No Iterations 2
smoothSolver:  Solving for Uy, Initial residual = 0.0446418, Final residual = 2.3836e-05, No Iterations 2
smoothSolver:  Solving for Uz, Initial residual = 0.146708, Final residual = 5.40165e-05, No Iterations 2
GAMG:  Solving for p, Initial residual = 0.170069, Final residual = 0.0085641, No Iterations 2
GAMG:  Solving for p, Initial residual = 0.0699887, Final residual = 0.00488924, No Iterations 1
GAMG:  Solving for p, Initial residual = 0.025487, Final residual = 0.00117787, No Iterations 2
GAMG:  Solving for p, Initial residual = 0.0197337, Final residual = 0.00137123, No Iterations 1
GAMG:  Solving for p, Initial residual = 0.00882756, Final residual = 0.000387525, No Iterations 2
time step continuity errors : sum local = 0.451696, global = -0.0820613, cumulative = -4.56272
ExecutionTime = 1.52 s  ClockTime = 1 s

Time = 17

smoothSolver:  Solving for Ux, Initial residual = 0.0422429, Final residual = 2.19259e-05, No Iterations 2
smoothSolver:  Solving for Uy, Initial residual = 0.0421755, Final residual = 2.21089e-05, No Iterations 2
smoothSolver:  Solving for Uz, Initial residual = 0.174239, Final residual = 6.13399e-05, No Iterations 2
GAMG:  Solving for p, Initial residual = 0.13472, Final residual = 0.0127303, No Iterations 1
GAMG:  Solving for p, Initial residual = 0.0483425, Final residual = 0.00192166, No Iterations 2
GAMG:  Solving for p, Initial residual = 0.0304908, Final residual = 0.00215722, No Iterations 1
GAMG:  Solving for p, Initial residual = 0.0128657, Final residual = 0.000526476, No Iterations 2
GAMG:  Solving for p, Initial residual = 0.00936785, Final residual = 0.000688599, No Iterations 1
time step continuity errors : sum local = 0.422679, global = 0.0851124, cumulative = -4.47761
ExecutionTime = 1.6 s  ClockTime = 1 s

Time = 18

smoothSolver:  Solving for Ux, Initial residual = 0.0377056, Final residual = 1.94197e-05, No Iterations 2
smoothSolver:  Solving for Uy, Initial residual = 0.0376705, Final residual = 1.94488e-05, No Iterations 2
smoothSolver:  Solving for Uz, Initial residual = 0.157522, Final residual = 5.51197e-05, No Iterations 2
GAMG:  Solving for p, Initial residual = 0.129639, Final residual = 0.00632789, No Iterations 2
GAMG:  Solving for p, Initial residual = 0.257138, Final residual = 0.0173481, No Iterations 1
GAMG:  Solving for p, Initial residual = 0.0893578, Final residual = 0.00394226, No Iterations 2
GAMG:  Solving for p, Initial residual = 0.0556562, Final residual = 0.00378163, No Iterations 1
GAMG:  Solving for p, Initial residual = 0.0219062, Final residual = 0.000925809, No Iterations 2
time step continuity errors : sum local = 0.287498, global = 0.062892, cumulative = -4.41472
ExecutionTime = 1.69 s  ClockTime = 1 s

Time = 19

smoothSolver:  Solving for Ux, Initial residual = 0.0319848, Final residual = 1.67452e-05, No Iterations 2
smoothSolver:  Solving for Uy, Initial residual = 0.032047, Final residual = 1.68167e-05, No Iterations 2
smoothSolver:  Solving for Uz, Initial residual = 0.11418, Final residual = 4.10763e-05, No Iterations 2
GAMG:  Solving for p, Initial residual = 0.14371, Final residual = 0.00984427, No Iterations 2
GAMG:  Solving for p, Initial residual = 0.173534, Final residual = 0.0118711, No Iterations 1
GAMG:  Solving for p, Initial residual = 0.0552316, Final residual = 0.00247783, No Iterations 2
GAMG:  Solving for p, Initial residual = 0.0375819, Final residual = 0.00255364, No Iterations 1
GAMG:  Solving for p, Initial residual = 0.014731, Final residual = 0.000622004, No Iterations 2
time step continuity errors : sum local = 0.409057, global = 0.0871472, cumulative = -4.32757
ExecutionTime = 1.77 s  ClockTime = 1 s

Time = 20

smoothSolver:  Solving for Ux, Initial residual = 0.0275352, Final residual = 1.48053e-05, No Iterations 2
smoothSolver:  Solving for Uy, Initial residual = 0.0277313, Final residual = 1.46679e-05, No Iterations 2
smoothSolver:  Solving for Uz, Initial residual = 0.0628977, Final residual = 2.55938e-05, No Iterations 2
GAMG:  Solving for p, Initial residual = 0.189824, Final residual = 0.0151306, No Iterations 2
GAMG:  Solving for p, Initial residual = 0.136144, Final residual = 0.00935846, No Iterations 1
GAMG:  Solving for p, Initial residual = 0.0429953, Final residual = 0.00193751, No Iterations 2
GAMG:  Solving for p, Initial residual = 0.0304544, Final residual = 0.0020792, No Iterations 1
GAMG:  Solving for p, Initial residual = 0.0122025, Final residual = 0.000519611, No Iterations 2
time step continuity errors : sum local = 0.44088, global = 0.091553, cumulative = -4.23602
ExecutionTime = 1.85 s  ClockTime = 1 s

Time = 21

smoothSolver:  Solving for Ux, Initial residual = 0.026016, Final residual = 1.37873e-05, No Iterations 2
smoothSolver:  Solving for Uy, Initial residual = 0.0264072, Final residual = 1.36878e-05, No Iterations 2
smoothSolver:  Solving for Uz, Initial residual = 0.0354931, Final residual = 1.74128e-05, No Iterations 2
GAMG:  Solving for p, Initial residual = 0.351036, Final residual = 0.0269708, No Iterations 2
GAMG:  Solving for p, Initial residual = 0.108038, Final residual = 0.00745265, No Iterations 1
GAMG:  Solving for p, Initial residual = 0.0347844, Final residual = 0.00157671, No Iterations 2
GAMG:  Solving for p, Initial residual = 0.025585, Final residual = 0.00175687, No Iterations 1
GAMG:  Solving for p, Initial residual = 0.0105473, Final residual = 0.000452655, No Iterations 2
time step continuity errors : sum local = 0.381488, global = 0.0765997, cumulative = -4.15942
ExecutionTime = 1.94 s  ClockTime = 2 s

Time = 22

smoothSolver:  Solving for Ux, Initial residual = 0.0268439, Final residual = 1.35982e-05, No Iterations 2
smoothSolver:  Solving for Uy, Initial residual = 0.027287, Final residual = 1.35876e-05, No Iterations 2
smoothSolver:  Solving for Uz, Initial residual = 0.0529674, Final residual = 2.1641e-05, No Iterations 2
GAMG:  Solving for p, Initial residual = 0.184259, Final residual = 0.0107684, No Iterations 2
GAMG:  Solving for p, Initial residual = 0.0782416, Final residual = 0.00547162, No Iterations 1
GAMG:  Solving for p, Initial residual = 0.027187, Final residual = 0.00124537, No Iterations 2
GAMG:  Solving for p, Initial residual = 0.0208816, Final residual = 0.00144872, No Iterations 1
GAMG:  Solving for p, Initial residual = 0.00899369, Final residual = 0.00038787, No Iterations 2
time step continuity errors : sum local = 0.263749, global = 0.05091, cumulative = -4.10851
ExecutionTime = 2.02 s  ClockTime = 2 s

Time = 23

smoothSolver:  Solving for Ux, Initial residual = 0.0279276, Final residual = 1.36237e-05, No Iterations 2
smoothSolver:  Solving for Uy, Initial residual = 0.0283604, Final residual = 1.36881e-05, No Iterations 2
smoothSolver:  Solving for Uz, Initial residual = 0.072121, Final residual = 2.65464e-05, No Iterations 2
GAMG:  Solving for p, Initial residual = 0.137177, Final residual = 0.00414332, No Iterations 2
GAMG:  Solving for p, Initial residual = 0.0543458, Final residual = 0.00385524, No Iterations 1
GAMG:  Solving for p, Initial residual = 0.0206244, Final residual = 0.000890311, No Iterations 2
GAMG:  Solving for p, Initial residual = 0.0148699, Final residual = 0.0010674, No Iterations 1
GAMG:  Solving for p, Initial residual = 0.00707507, Final residual = 0.000312807, No Iterations 2
time step continuity errors : sum local = 0.134489, global = 0.0252678, cumulative = -4.08324
ExecutionTime = 2.1 s  ClockTime = 2 s

Time = 24

smoothSolver:  Solving for Ux, Initial residual = 0.0280143, Final residual = 1.34056e-05, No Iterations 2
smoothSolver:  Solving for Uy, Initial residual = 0.028401, Final residual = 1.33743e-05, No Iterations 2
smoothSolver:  Solving for Uz, Initial residual = 0.0759628, Final residual = 2.69306e-05, No Iterations 2
GAMG:  Solving for p, Initial residual = 0.125298, Final residual = 0.00493938, No Iterations 2
GAMG:  Solving for p, Initial residual = 0.105192, Final residual = 0.00711192, No Iterations 1
GAMG:  Solving for p, Initial residual = 0.0366768, Final residual = 0.00158444, No Iterations 2
GAMG:  Solving for p, Initial residual = 0.0315989, Final residual = 0.00219355, No Iterations 1
GAMG:  Solving for p, Initial residual = 0.0132453, Final residual = 0.000578859, No Iterations 2
time step continuity errors : sum local = 0.111175, global = -0.0257336, cumulative = -4.10898
ExecutionTime = 2.19 s  ClockTime = 2 s

Time = 25

smoothSolver:  Solving for Ux, Initial residual = 0.0270965, Final residual = 1.27386e-05, No Iterations 2
smoothSolver:  Solving for Uy, Initial residual = 0.0273857, Final residual = 1.28539e-05, No Iterations 2
smoothSolver:  Solving for Uz, Initial residual = 0.0645942, Final residual = 2.33308e-05, No Iterations 2
GAMG:  Solving for p, Initial residual = 0.12887, Final residual = 0.00743294, No Iterations 2
GAMG:  Solving for p, Initial residual = 0.166585, Final residual = 0.011397, No Iterations 1
GAMG:  Solving for p, Initial residual = 0.0527233, Final residual = 0.00237686, No Iterations 2
GAMG:  Solving for p, Initial residual = 0.0362158, Final residual = 0.00248493, No Iterations 1
GAMG:  Solving for p, Initial residual = 0.0142595, Final residual = 0.000608273, No Iterations 2
time step continuity errors : sum local = 0.167158, global = -0.037158, cumulative = -4.14613
ExecutionTime = 2.27 s  ClockTime = 2 s

Time = 26

smoothSolver:  Solving for Ux, Initial residual = 0.0254572, Final residual = 1.19089e-05, No Iterations 2
smoothSolver:  Solving for Uy, Initial residual = 0.0256524, Final residual = 1.21058e-05, No Iterations 2
smoothSolver:  Solving for Uz, Initial residual = 0.0440324, Final residual = 1.73201e-05, No Iterations 2
GAMG:  Solving for p, Initial residual = 0.14803, Final residual = 0.0104936, No Iterations 2
GAMG:  Solving for p, Initial residual = 0.129863, Final residual = 0.00895621, No Iterations 1
GAMG:  Solving for p, Initial residual = 0.0410705, Final residual = 0.00186696, No Iterations 2
GAMG:  Solving for p, Initial residual = 0.029406, Final residual = 0.00201658, No Iterations 1
GAMG:  Solving for p, Initial residual = 0.011735, Final residual = 0.00050187, No Iterations 2
time step continuity errors : sum local = 0.200648, global = -0.0432688, cumulative = -4.1894
ExecutionTime = 2.36 s  ClockTime = 2 s

Time = 27

smoothSolver:  Solving for Ux, Initial residual = 0.0236694, Final residual = 1.12221e-05, No Iterations 2
smoothSolver:  Solving for Uy, Initial residual = 0.0237587, Final residual = 1.14558e-05, No Iterations 2
smoothSolver:  Solving for Uz, Initial residual = 0.0268191, Final residual = 1.2338e-05, No Iterations 2
GAMG:  Solving for p, Initial residual = 0.198654, Final residual = 0.0145427, No Iterations 2
GAMG:  Solving for p, Initial residual = 0.104309, Final residual = 0.00723651, No Iterations 1
GAMG:  Solving for p, Initial residual = 0.033598, Final residual = 0.00152585, No Iterations 2
GAMG:  Solving for p, Initial residual = 0.0248675, Final residual = 0.00171014, No Iterations 1
GAMG:  Solving for p, Initial residual = 0.0101898, Final residual = 0.000435729, No Iterations 2
time step continuity errors : sum local = 0.192859, global = -0.0404468, cumulative = -4.22985
ExecutionTime = 2.44 s  ClockTime = 2 s

Time = 28

smoothSolver:  Solving for Ux, Initial residual = 0.0221392, Final residual = 1.0641e-05, No Iterations 2
smoothSolver:  Solving for Uy, Initial residual = 0.0221186, Final residual = 1.07413e-05, No Iterations 2
smoothSolver:  Solving for Uz, Initial residual = 0.0265534, Final residual = 1.16233e-05, No Iterations 2
GAMG:  Solving for p, Initial residual = 0.188874, Final residual = 0.011751, No Iterations 2
GAMG:  Solving for p, Initial residual = 0.0790903, Final residual = 0.00553741, No Iterations 1
GAMG:  Solving for p, Initial residual = 0.0269006, Final residual = 0.00123319, No Iterations 2
GAMG:  Solving for p, Initial residual = 0.0207199, Final residual = 0.00142914, No Iterations 1
GAMG:  Solving for p, Initial residual = 0.00879444, Final residual = 0.000379114, No Iterations 2
time step continuity errors : sum local = 0.153943, global = -0.0311967, cumulative = -4.26105
ExecutionTime = 2.53 s  ClockTime = 2 s

Time = 29

smoothSolver:  Solving for Ux, Initial residual = 0.0208386, Final residual = 1.01038e-05, No Iterations 2
smoothSolver:  Solving for Uy, Initial residual = 0.0208048, Final residual = 1.01501e-05, No Iterations 2
smoothSolver:  Solving for Uz, Initial residual = 0.0350976, Final residual = 1.32867e-05, No Iterations 2
GAMG:  Solving for p, Initial residual = 0.134698, Final residual = 0.0133222, No Iterations 1
GAMG:  Solving for p, Initial residual = 0.0490388, Final residual = 0.00246853, No Iterations 2
GAMG:  Solving for p, Initial residual = 0.033751, Final residual = 0.00236768, No Iterations 1
GAMG:  Solving for p, Initial residual = 0.0137487, Final residual = 0.000606896, No Iterations 2
GAMG:  Solving for p, Initial residual = 0.0108914, Final residual = 0.000768055, No Iterations 1
time step continuity errors : sum local = 0.24048, global = -0.0674773, cumulative = -4.32852
ExecutionTime = 2.61 s  ClockTime = 2 s

Time = 30

smoothSolver:  Solving for Ux, Initial residual = 0.0196404, Final residual = 9.60809e-06, No Iterations 2
smoothSolver:  Solving for Uy, Initial residual = 0.0196041, Final residual = 9.67604e-06, No Iterations 2
smoothSolver:  Solving for Uz, Initial residual = 0.0390385, Final residual = 1.39071e-05, No Iterations 2
GAMG:  Solving for p, Initial residual = 0.117201, Final residual = 0.0115012, No Iterations 1
GAMG:  Solving for p, Initial residual = 0.04396, Final residual = 0.00171316, No Iterations 2
GAMG:  Solving for p, Initial residual = 0.0271899, Final residual = 0.00193422, No Iterations 1
GAMG:  Solving for p, Initial residual = 0.0114652, Final residual = 0.000449501, No Iterations 2
GAMG:  Solving for p, Initial residual = 0.00816381, Final residual = 0.000601142, No Iterations 1
time step continuity errors : sum local = 0.120848, global = 0.0218422, cumulative = -4.30668
ExecutionTime = 2.69 s  ClockTime = 2 s

Time = 31

smoothSolver:  Solving for Ux, Initial residual = 0.0185099, Final residual = 9.07378e-06, No Iterations 2
smoothSolver:  Solving for Uy, Initial residual = 0.0184623, Final residual = 9.13729e-06, No Iterations 2
smoothSolver:  Solving for Uz, Initial residual = 0.0364397, Final residual = 1.31044e-05, No Iterations 2
GAMG:  Solving for p, Initial residual = 0.114099, Final residual = 0.00495047, No Iterations 2
GAMG:  Solving for p, Initial residual = 0.119312, Final residual = 0.00813063, No Iterations 1
GAMG:  Solving for p, Initial residual = 0.0402609, Final residual = 0.00178932, No Iterations 2
GAMG:  Solving for p, Initial residual = 0.0280923, Final residual = 0.00195763, No Iterations 1
GAMG:  Solving for p, Initial residual = 0.0114512, Final residual = 0.000502716, No Iterations 2
time step continuity errors : sum local = 0.0684707, global = 0.0162463, cumulative = -4.29044
ExecutionTime = 2.78 s  ClockTime = 2 s

Time = 32

smoothSolver:  Solving for Ux, Initial residual = 0.0175275, Final residual = 8.46492e-06, No Iterations 2
smoothSolver:  Solving for Uy, Initial residual = 0.0175224, Final residual = 8.56268e-06, No Iterations 2
smoothSolver:  Solving for Uz, Initial residual = 0.028893, Final residual = 1.0878e-05, No Iterations 2
GAMG:  Solving for p, Initial residual = 0.120186, Final residual = 0.00659851, No Iterations 2
GAMG:  Solving for p, Initial residual = 0.104596, Final residual = 0.00718684, No Iterations 1
GAMG:  Solving for p, Initial residual = 0.033116, Final residual = 0.00149361, No Iterations 2
GAMG:  Solving for p, Initial residual = 0.0240709, Final residual = 0.00165938, No Iterations 1
GAMG:  Solving for p, Initial residual = 0.00967741, Final residual = 0.000413901, No Iterations 2
time step continuity errors : sum local = 0.0872432, global = 0.0202438, cumulative = -4.27019
ExecutionTime = 2.86 s  ClockTime = 2 s

Time = 33

smoothSolver:  Solving for Ux, Initial residual = 0.0168964, Final residual = 8.06381e-06, No Iterations 2
smoothSolver:  Solving for Uy, Initial residual = 0.0169825, Final residual = 8.17931e-06, No Iterations 2
smoothSolver:  Solving for Uz, Initial residual = 0.0205597, Final residual = 8.63028e-06, No Iterations 2
GAMG:  Solving for p, Initial residual = 0.136411, Final residual = 0.00817562, No Iterations 2
GAMG:  Solving for p, Initial residual = 0.0875323, Final residual = 0.00605995, No Iterations 1
GAMG:  Solving for p, Initial residual = 0.0283083, Final residual = 0.00128434, No Iterations 2
GAMG:  Solving for p, Initial residual = 0.021191, Final residual = 0.0014612, No Iterations 1
GAMG:  Solving for p, Initial residual = 0.00861829, Final residual = 0.000369741, No Iterations 2
time step continuity errors : sum local = 0.0932095, global = 0.020792, cumulative = -4.2494
ExecutionTime = 2.94 s  ClockTime = 3 s

Time = 34

smoothSolver:  Solving for Ux, Initial residual = 0.0166845, Final residual = 7.75005e-06, No Iterations 2
smoothSolver:  Solving for Uy, Initial residual = 0.016849, Final residual = 7.93109e-06, No Iterations 2
smoothSolver:  Solving for Uz, Initial residual = 0.0174549, Final residual = 7.61501e-06, No Iterations 2
GAMG:  Solving for p, Initial residual = 0.166878, Final residual = 0.00936229, No Iterations 2
GAMG:  Solving for p, Initial residual = 0.0701279, Final residual = 0.00490863, No Iterations 1
GAMG:  Solving for p, Initial residual = 0.0236262, Final residual = 0.00107775, No Iterations 2
GAMG:  Solving for p, Initial residual = 0.01827, Final residual = 0.00126236, No Iterations 1
GAMG:  Solving for p, Initial residual = 0.00760909, Final residual = 0.000326928, No Iterations 2
time step continuity errors : sum local = 0.0832174, global = 0.0179233, cumulative = -4.23148
ExecutionTime = 3.03 s  ClockTime = 3 s

Time = 35

smoothSolver:  Solving for Ux, Initial residual = 0.0167812, Final residual = 7.53565e-06, No Iterations 2
smoothSolver:  Solving for Uy, Initial residual = 0.0169628, Final residual = 7.78436e-06, No Iterations 2
smoothSolver:  Solving for Uz, Initial residual = 0.0192142, Final residual = 7.79121e-06, No Iterations 2
GAMG:  Solving for p, Initial residual = 0.129332, Final residual = 0.0128676, No Iterations 1
GAMG:  Solving for p, Initial residual = 0.0457247, Final residual = 0.00229439, No Iterations 2
GAMG:  Solving for p, Initial residual = 0.030997, Final residual = 0.00212397, No Iterations 1
GAMG:  Solving for p, Initial residual = 0.0121809, Final residual = 0.000532937, No Iterations 2
GAMG:  Solving for p, Initial residual = 0.00968796, Final residual = 0.000681308, No Iterations 1
time step continuity errors : sum local = 0.153995, global = 0.047315, cumulative = -4.18416
ExecutionTime = 3.11 s  ClockTime = 3 s

Time = 36

smoothSolver:  Solving for Ux, Initial residual = 0.016859, Final residual = 7.47359e-06, No Iterations 2
smoothSolver:  Solving for Uy, Initial residual = 0.0170384, Final residual = 7.6779e-06, No Iterations 2
smoothSolver:  Solving for Uz, Initial residual = 0.0210802, Final residual = 8.10773e-06, No Iterations 2
GAMG:  Solving for p, Initial residual = 0.1097, Final residual = 0.0100504, No Iterations 1
GAMG:  Solving for p, Initial residual = 0.035801, Final residual = 0.00148336, No Iterations 2
GAMG:  Solving for p, Initial residual = 0.021795, Final residual = 0.00156967, No Iterations 1
GAMG:  Solving for p, Initial residual = 0.00930001, Final residual = 0.000407923, No Iterations 2
GAMG:  Solving for p, Initial residual = 0.00736482, Final residual = 0.000534281, No Iterations 1
time step continuity errors : sum local = 0.0946234, global = 0.0229003, cumulative = -4.16126
ExecutionTime = 3.18 s  ClockTime = 3 s

Time = 37

smoothSolver:  Solving for Ux, Initial residual = 0.0167652, Final residual = 7.35104e-06, No Iterations 2
smoothSolver:  Solving for Uy, Initial residual = 0.0169156, Final residual = 7.49715e-06, No Iterations 2
smoothSolver:  Solving for Uz, Initial residual = 0.0211616, Final residual = 7.99596e-06, No Iterations 2
GAMG:  Solving for p, Initial residual = 0.102193, Final residual = 0.00923455, No Iterations 1
GAMG:  Solving for p, Initial residual = 0.0370222, Final residual = 0.0016357, No Iterations 2
GAMG:  Solving for p, Initial residual = 0.0257048, Final residual = 0.00178763, No Iterations 1
GAMG:  Solving for p, Initial residual = 0.010154, Final residual = 0.00043552, No Iterations 2
GAMG:  Solving for p, Initial residual = 0.00760202, Final residual = 0.000556678, No Iterations 1
time step continuity errors : sum local = 0.0715128, global = -0.0217538, cumulative = -4.18301
ExecutionTime = 3.27 s  ClockTime = 3 s

Time = 38

smoothSolver:  Solving for Ux, Initial residual = 0.0164904, Final residual = 7.13229e-06, No Iterations 2
smoothSolver:  Solving for Uy, Initial residual = 0.01657, Final residual = 7.25998e-06, No Iterations 2
smoothSolver:  Solving for Uz, Initial residual = 0.019557, Final residual = 7.45344e-06, No Iterations 2
GAMG:  Solving for p, Initial residual = 0.101232, Final residual = 0.00406125, No Iterations 2
GAMG:  Solving for p, Initial residual = 0.0717447, Final residual = 0.0049772, No Iterations 1
GAMG:  Solving for p, Initial residual = 0.0235259, Final residual = 0.00106184, No Iterations 2
GAMG:  Solving for p, Initial residual = 0.0172163, Final residual = 0.00120626, No Iterations 1
GAMG:  Solving for p, Initial residual = 0.00717054, Final residual = 0.000313998, No Iterations 2
time step continuity errors : sum local = 0.0391948, global = -0.00935296, cumulative = -4.19237
ExecutionTime = 3.35 s  ClockTime = 3 s

Time = 39

smoothSolver:  Solving for Ux, Initial residual = 0.0160603, Final residual = 6.94222e-06, No Iterations 2
smoothSolver:  Solving for Uy, Initial residual = 0.016091, Final residual = 7.07658e-06, No Iterations 2
smoothSolver:  Solving for Uz, Initial residual = 0.0171368, Final residual = 6.78221e-06, No Iterations 2
GAMG:  Solving for p, Initial residual = 0.105015, Final residual = 0.00474722, No Iterations 2
GAMG:  Solving for p, Initial residual = 0.0650446, Final residual = 0.00452735, No Iterations 1
GAMG:  Solving for p, Initial residual = 0.0215891, Final residual = 0.000985095, No Iterations 2
GAMG:  Solving for p, Initial residual = 0.0164491, Final residual = 0.00114971, No Iterations 1
GAMG:  Solving for p, Initial residual = 0.00687083, Final residual = 0.000299885, No Iterations 2
time step continuity errors : sum local = 0.0459706, global = -0.0107073, cumulative = -4.20308
ExecutionTime = 3.43 s  ClockTime = 3 s

Time = 40

smoothSolver:  Solving for Ux, Initial residual = 0.015575, Final residual = 6.73958e-06, No Iterations 2
smoothSolver:  Solving for Uy, Initial residual = 0.0155741, Final residual = 6.90142e-06, No Iterations 2
smoothSolver:  Solving for Uz, Initial residual = 0.0152104, Final residual = 6.14875e-06, No Iterations 2
GAMG:  Solving for p, Initial residual = 0.112794, Final residual = 0.00505998, No Iterations 2
GAMG:  Solving for p, Initial residual = 0.0556812, Final residual = 0.00390252, No Iterations 1
GAMG:  Solving for p, Initial residual = 0.0190827, Final residual = 0.000875795, No Iterations 2
GAMG:  Solving for p, Initial residual = 0.0149172, Final residual = 0.00104518, No Iterations 1
GAMG:  Solving for p, Initial residual = 0.00634797, Final residual = 0.000278741, No Iterations 2
time step continuity errors : sum local = 0.0460368, global = -0.0104127, cumulative = -4.21349
ExecutionTime = 3.51 s  ClockTime = 3 s

Time = 41

smoothSolver:  Solving for Ux, Initial residual = 0.0151191, Final residual = 6.63339e-06, No Iterations 2
smoothSolver:  Solving for Uy, Initial residual = 0.0151046, Final residual = 6.69671e-06, No Iterations 2
smoothSolver:  Solving for Uz, Initial residual = 0.0143983, Final residual = 5.78877e-06, No Iterations 2
GAMG:  Solving for p, Initial residual = 0.120176, Final residual = 0.0108967, No Iterations 1
GAMG:  Solving for p, Initial residual = 0.0384997, Final residual = 0.00193158, No Iterations 2
GAMG:  Solving for p, Initial residual = 0.0265821, Final residual = 0.00181797, No Iterations 1
GAMG:  Solving for p, Initial residual = 0.0105078, Final residual = 0.000465311, No Iterations 2
GAMG:  Solving for p, Initial residual = 0.008391, Final residual = 0.000598418, No Iterations 1
time step continuity errors : sum local = 0.0966309, global = -0.0311827, cumulative = -4.24467
ExecutionTime = 3.6 s  ClockTime = 3 s

Time = 42

smoothSolver:  Solving for Ux, Initial residual = 0.0147071, Final residual = 6.47133e-06, No Iterations 2
smoothSolver:  Solving for Uy, Initial residual = 0.0146905, Final residual = 6.5075e-06, No Iterations 2
smoothSolver:  Solving for Uz, Initial residual = 0.0143134, Final residual = 5.68238e-06, No Iterations 2
GAMG:  Solving for p, Initial residual = 0.105246, Final residual = 0.00841949, No Iterations 1
GAMG:  Solving for p, Initial residual = 0.0303844, Final residual = 0.00141224, No Iterations 2
GAMG:  Solving for p, Initial residual = 0.0207046, Final residual = 0.00145462, No Iterations 1
GAMG:  Solving for p, Initial residual = 0.00861286, Final residual = 0.0003863, No Iterations 2
GAMG:  Solving for p, Initial residual = 0.00694557, Final residual = 0.000504706, No Iterations 1
time step continuity errors : sum local = 0.0729221, global = -0.0215273, cumulative = -4.2662
ExecutionTime = 3.68 s  ClockTime = 3 s

Time = 43

smoothSolver:  Solving for Ux, Initial residual = 0.0143311, Final residual = 6.31319e-06, No Iterations 2
smoothSolver:  Solving for Uy, Initial residual = 0.0143361, Final residual = 6.32062e-06, No Iterations 2
smoothSolver:  Solving for Uz, Initial residual = 0.0142595, Final residual = 5.55047e-06, No Iterations 2
GAMG:  Solving for p, Initial residual = 0.0969856, Final residual = 0.00760658, No Iterations 1
GAMG:  Solving for p, Initial residual = 0.0281252, Final residual = 0.000914167, No Iterations 2
GAMG:  Solving for p, Initial residual = 0.0141495, Final residual = 0.00103502, No Iterations 1
GAMG:  Solving for p, Initial residual = 0.00644764, Final residual = 0.00024388, No Iterations 2
GAMG:  Solving for p, Initial residual = 0.00457556, Final residual = 0.000349411, No Iterations 1
time step continuity errors : sum local = 0.0427531, global = -0.00554527, cumulative = -4.27174
ExecutionTime = 3.76 s  ClockTime = 3 s

Time = 44

smoothSolver:  Solving for Ux, Initial residual = 0.0140045, Final residual = 6.11989e-06, No Iterations 2
smoothSolver:  Solving for Uy, Initial residual = 0.0140209, Final residual = 6.1619e-06, No Iterations 2
smoothSolver:  Solving for Uz, Initial residual = 0.0138113, Final residual = 5.37988e-06, No Iterations 2
GAMG:  Solving for p, Initial residual = 0.0935191, Final residual = 0.00718199, No Iterations 1
GAMG:  Solving for p, Initial residual = 0.029258, Final residual = 0.00126457, No Iterations 2
GAMG:  Solving for p, Initial residual = 0.0206542, Final residual = 0.00138459, No Iterations 1
GAMG:  Solving for p, Initial residual = 0.00808811, Final residual = 0.000356284, No Iterations 2
GAMG:  Solving for p, Initial residual = 0.00603064, Final residual = 0.000441398, No Iterations 1
time step continuity errors : sum local = 0.0467027, global = 0.0147932, cumulative = -4.25695
ExecutionTime = 3.83 s  ClockTime = 3 s

Time = 45

smoothSolver:  Solving for Ux, Initial residual = 0.0137532, Final residual = 5.93089e-06, No Iterations 2
smoothSolver:  Solving for Uy, Initial residual = 0.0138044, Final residual = 6.05004e-06, No Iterations 2
smoothSolver:  Solving for Uz, Initial residual = 0.0131076, Final residual = 5.1441e-06, No Iterations 2
GAMG:  Solving for p, Initial residual = 0.0930957, Final residual = 0.00743499, No Iterations 1
GAMG:  Solving for p, Initial residual = 0.0335949, Final residual = 0.00164374, No Iterations 2
GAMG:  Solving for p, Initial residual = 0.0227147, Final residual = 0.00151183, No Iterations 1
GAMG:  Solving for p, Initial residual = 0.00852403, Final residual = 0.000378711, No Iterations 2
GAMG:  Solving for p, Initial residual = 0.00664434, Final residual = 0.000477864, No Iterations 1
time step continuity errors : sum local = 0.0586872, global = 0.0195753, cumulative = -4.23737
ExecutionTime = 3.92 s  ClockTime = 4 s

Time = 46

smoothSolver:  Solving for Ux, Initial residual = 0.0135885, Final residual = 5.77364e-06, No Iterations 2
smoothSolver:  Solving for Uy, Initial residual = 0.0136723, Final residual = 5.93877e-06, No Iterations 2
smoothSolver:  Solving for Uz, Initial residual = 0.0125205, Final residual = 4.96469e-06, No Iterations 2
GAMG:  Solving for p, Initial residual = 0.0951841, Final residual = 0.00767718, No Iterations 1
GAMG:  Solving for p, Initial residual = 0.0318605, Final residual = 0.00161941, No Iterations 2
GAMG:  Solving for p, Initial residual = 0.0220441, Final residual = 0.0014761, No Iterations 1
GAMG:  Solving for p, Initial residual = 0.00837995, Final residual = 0.000373032, No Iterations 2
GAMG:  Solving for p, Initial residual = 0.00666486, Final residual = 0.000478296, No Iterations 1
time step continuity errors : sum local = 0.0637938, global = 0.0211386, cumulative = -4.21624
ExecutionTime = 4 s  ClockTime = 4 s

Time = 47

smoothSolver:  Solving for Ux, Initial residual = 0.013492, Final residual = 5.69728e-06, No Iterations 2
smoothSolver:  Solving for Uy, Initial residual = 0.0135977, Final residual = 5.82389e-06, No Iterations 2
smoothSolver:  Solving for Uz, Initial residual = 0.0122808, Final residual = 4.81408e-06, No Iterations 2
GAMG:  Solving for p, Initial residual = 0.0969465, Final residual = 0.00730897, No Iterations 1
GAMG:  Solving for p, Initial residual = 0.027736, Final residual = 0.0014119, No Iterations 2
GAMG:  Solving for p, Initial residual = 0.0199572, Final residual = 0.00134629, No Iterations 1
GAMG:  Solving for p, Initial residual = 0.00773509, Final residual = 0.000344166, No Iterations 2
GAMG:  Solving for p, Initial residual = 0.00621565, Final residual = 0.000447575, No Iterations 1
time step continuity errors : sum local = 0.0610244, global = 0.0196971, cumulative = -4.19654
ExecutionTime = 4.08 s  ClockTime = 4 s

Time = 48

smoothSolver:  Solving for Ux, Initial residual = 0.0134268, Final residual = 5.63612e-06, No Iterations 2
smoothSolver:  Solving for Uy, Initial residual = 0.0135367, Final residual = 5.74879e-06, No Iterations 2
smoothSolver:  Solving for Uz, Initial residual = 0.0122796, Final residual = 4.78616e-06, No Iterations 2
GAMG:  Solving for p, Initial residual = 0.089072, Final residual = 0.00616292, No Iterations 1
GAMG:  Solving for p, Initial residual = 0.0239867, Final residual = 0.00115044, No Iterations 2
GAMG:  Solving for p, Initial residual = 0.0166805, Final residual = 0.00114663, No Iterations 1
GAMG:  Solving for p, Initial residual = 0.0067061, Final residual = 0.000302365, No Iterations 2
GAMG:  Solving for p, Initial residual = 0.00543232, Final residual = 0.000396561, No Iterations 1
time step continuity errors : sum local = 0.0524767, global = 0.0159555, cumulative = -4.18058
ExecutionTime = 4.16 s  ClockTime = 4 s

Time = 49

smoothSolver:  Solving for Ux, Initial residual = 0.0133513, Final residual = 5.57219e-06, No Iterations 2
smoothSolver:  Solving for Uy, Initial residual = 0.0134581, Final residual = 5.65774e-06, No Iterations 2
smoothSolver:  Solving for Uz, Initial residual = 0.0122949, Final residual = 4.72882e-06, No Iterations 2
GAMG:  Solving for p, Initial residual = 0.0832029, Final residual = 0.00558096, No Iterations 1
GAMG:  Solving for p, Initial residual = 0.0221729, Final residual = 0.00216106, No Iterations 1
GAMG:  Solving for p, Initial residual = 0.0104622, Final residual = 0.000482548, No Iterations 2
GAMG:  Solving for p, Initial residual = 0.00772364, Final residual = 0.000559184, No Iterations 1
GAMG:  Solving for p, Initial residual = 0.0035811, Final residual = 0.000164314, No Iterations 2
time step continuity errors : sum local = 0.0201985, global = 0.00431873, cumulative = -4.17626
ExecutionTime = 4.24 s  ClockTime = 4 s

Time = 50

smoothSolver:  Solving for Ux, Initial residual = 0.0132333, Final residual = 5.54004e-06, No Iterations 2
smoothSolver:  Solving for Uy, Initial residual = 0.0133302, Final residual = 5.59998e-06, No Iterations 2
smoothSolver:  Solving for Uz, Initial residual = 0.0121967, Final residual = 4.69105e-06, No Iterations 2
GAMG:  Solving for p, Initial residual = 0.0799753, Final residual = 0.00527177, No Iterations 1
GAMG:  Solving for p, Initial residual = 0.0216202, Final residual = 0.00208165, No Iterations 1
GAMG:  Solving for p, Initial residual = 0.00941896, Final residual = 0.000394923, No Iterations 2
GAMG:  Solving for p, Initial residual = 0.00617032, Final residual = 0.000463478, No Iterations 1
GAMG:  Solving for p, Initial residual = 0.00300463, Final residual = 0.000118996, No Iterations 2
time step continuity errors : sum local = 0.0135622, global = -0.00098156, cumulative = -4.17725
ExecutionTime = 4.32 s  ClockTime = 4 s

Time = 51

smoothSolver:  Solving for Ux, Initial residual = 0.0130668, Final residual = 5.46315e-06, No Iterations 2
smoothSolver:  Solving for Uy, Initial residual = 0.0131493, Final residual = 5.48784e-06, No Iterations 2
smoothSolver:  Solving for Uz, Initial residual = 0.0119709, Final residual = 4.57634e-06, No Iterations 2
GAMG:  Solving for p, Initial residual = 0.0783983, Final residual = 0.00516076, No Iterations 1
GAMG:  Solving for p, Initial residual = 0.0217091, Final residual = 0.00216928, No Iterations 1
GAMG:  Solving for p, Initial residual = 0.0107519, Final residual = 0.000507317, No Iterations 2
GAMG:  Solving for p, Initial residual = 0.00805252, Final residual = 0.000576419, No Iterations 1
GAMG:  Solving for p, Initial residual = 0.00358686, Final residual = 0.000164386, No Iterations 2
time step continuity errors : sum local = 0.0173258, global = -0.00465457, cumulative = -4.1819
ExecutionTime = 4.41 s  ClockTime = 4 s

Time = 52

smoothSolver:  Solving for Ux, Initial residual = 0.0128742, Final residual = 5.37812e-06, No Iterations 2
smoothSolver:  Solving for Uy, Initial residual = 0.0129544, Final residual = 5.37015e-06, No Iterations 2
smoothSolver:  Solving for Uz, Initial residual = 0.0116456, Final residual = 4.4248e-06, No Iterations 2
GAMG:  Solving for p, Initial residual = 0.0778225, Final residual = 0.00515161, No Iterations 1
GAMG:  Solving for p, Initial residual = 0.0221657, Final residual = 0.000992871, No Iterations 2
GAMG:  Solving for p, Initial residual = 0.0155754, Final residual = 0.00108337, No Iterations 1
GAMG:  Solving for p, Initial residual = 0.00628477, Final residual = 0.000287429, No Iterations 2
GAMG:  Solving for p, Initial residual = 0.004881, Final residual = 0.000365846, No Iterations 1
time step continuity errors : sum local = 0.0383101, global = -0.012341, cumulative = -4.19424
ExecutionTime = 4.48 s  ClockTime = 4 s

Time = 53

smoothSolver:  Solving for Ux, Initial residual = 0.0126659, Final residual = 5.31393e-06, No Iterations 2
smoothSolver:  Solving for Uy, Initial residual = 0.0127492, Final residual = 5.2446e-06, No Iterations 2
smoothSolver:  Solving for Uz, Initial residual = 0.0112879, Final residual = 4.26015e-06, No Iterations 2
GAMG:  Solving for p, Initial residual = 0.0780768, Final residual = 0.00508818, No Iterations 1
GAMG:  Solving for p, Initial residual = 0.0219455, Final residual = 0.00100914, No Iterations 2
GAMG:  Solving for p, Initial residual = 0.0151244, Final residual = 0.00105983, No Iterations 1
GAMG:  Solving for p, Initial residual = 0.00605234, Final residual = 0.000276501, No Iterations 2
GAMG:  Solving for p, Initial residual = 0.00476731, Final residual = 0.000353548, No Iterations 1
time step continuity errors : sum local = 0.0383422, global = -0.0125168, cumulative = -4.20676
ExecutionTime = 4.57 s  ClockTime = 4 s

Time = 54

smoothSolver:  Solving for Ux, Initial residual = 0.0124627, Final residual = 5.20424e-06, No Iterations 2
smoothSolver:  Solving for Uy, Initial residual = 0.0125479, Final residual = 5.14509e-06, No Iterations 2
smoothSolver:  Solving for Uz, Initial residual = 0.0109428, Final residual = 4.0957e-06, No Iterations 2
GAMG:  Solving for p, Initial residual = 0.0785928, Final residual = 0.00493333, No Iterations 1
GAMG:  Solving for p, Initial residual = 0.0211005, Final residual = 0.000919611, No Iterations 2
GAMG:  Solving for p, Initial residual = 0.0134723, Final residual = 0.000955321, No Iterations 1
GAMG:  Solving for p, Initial residual = 0.00559763, Final residual = 0.000258425, No Iterations 2
GAMG:  Solving for p, Initial residual = 0.00444055, Final residual = 0.000335014, No Iterations 1
time step continuity errors : sum local = 0.0364755, global = -0.0113308, cumulative = -4.21809
ExecutionTime = 4.65 s  ClockTime = 4 s

Time = 55

smoothSolver:  Solving for Ux, Initial residual = 0.0122873, Final residual = 5.11174e-06, No Iterations 2
smoothSolver:  Solving for Uy, Initial residual = 0.0123706, Final residual = 5.05526e-06, No Iterations 2
smoothSolver:  Solving for Uz, Initial residual = 0.0106496, Final residual = 3.98195e-06, No Iterations 2
GAMG:  Solving for p, Initial residual = 0.0788666, Final residual = 0.00475456, No Iterations 1
GAMG:  Solving for p, Initial residual = 0.0201732, Final residual = 0.00189492, No Iterations 1
GAMG:  Solving for p, Initial residual = 0.00922753, Final residual = 0.000439131, No Iterations 2
GAMG:  Solving for p, Initial residual = 0.00691429, Final residual = 0.000507015, No Iterations 1
GAMG:  Solving for p, Initial residual = 0.00320444, Final residual = 0.000149668, No Iterations 2
time step continuity errors : sum local = 0.0158365, global = -0.00391076, cumulative = -4.222
ExecutionTime = 4.72 s  ClockTime = 4 s

Time = 56

smoothSolver:  Solving for Ux, Initial residual = 0.0121212, Final residual = 5.01883e-06, No Iterations 2
smoothSolver:  Solving for Uy, Initial residual = 0.0122132, Final residual = 4.99438e-06, No Iterations 2
smoothSolver:  Solving for Uz, Initial residual = 0.0104037, Final residual = 3.90027e-06, No Iterations 2
GAMG:  Solving for p, Initial residual = 0.0785036, Final residual = 0.00457312, No Iterations 1
GAMG:  Solving for p, Initial residual = 0.0197102, Final residual = 0.0017133, No Iterations 1
GAMG:  Solving for p, Initial residual = 0.00794907, Final residual = 0.000315066, No Iterations 2
GAMG:  Solving for p, Initial residual = 0.0051107, Final residual = 0.00039078, No Iterations 1
GAMG:  Solving for p, Initial residual = 0.00266113, Final residual = 0.000119746, No Iterations 2
time step continuity errors : sum local = 0.0122807, global = -0.00329724, cumulative = -4.2253
ExecutionTime = 4.81 s  ClockTime = 4 s

Time = 57

smoothSolver:  Solving for Ux, Initial residual = 0.0119914, Final residual = 4.96239e-06, No Iterations 2
smoothSolver:  Solving for Uy, Initial residual = 0.0120737, Final residual = 4.92243e-06, No Iterations 2
smoothSolver:  Solving for Uz, Initial residual = 0.010193, Final residual = 3.82561e-06, No Iterations 2
GAMG:  Solving for p, Initial residual = 0.07729, Final residual = 0.00441591, No Iterations 1
GAMG:  Solving for p, Initial residual = 0.0192824, Final residual = 0.0016254, No Iterations 1
GAMG:  Solving for p, Initial residual = 0.00772138, Final residual = 0.000271083, No Iterations 2
GAMG:  Solving for p, Initial residual = 0.00457145, Final residual = 0.000332516, No Iterations 1
GAMG:  Solving for p, Initial residual = 0.00239671, Final residual = 9.39572e-05, No Iterations 2
time step continuity errors : sum local = 0.0096802, global = 0.00291792, cumulative = -4.22238
ExecutionTime = 4.88 s  ClockTime = 5 s

Time = 58

smoothSolver:  Solving for Ux, Initial residual = 0.0118707, Final residual = 4.89979e-06, No Iterations 2
smoothSolver:  Solving for Uy, Initial residual = 0.0119516, Final residual = 4.88793e-06, No Iterations 2
smoothSolver:  Solving for Uz, Initial residual = 0.0100098, Final residual = 3.75527e-06, No Iterations 2
GAMG:  Solving for p, Initial residual = 0.075977, Final residual = 0.00431586, No Iterations 1
GAMG:  Solving for p, Initial residual = 0.0188776, Final residual = 0.00161808, No Iterations 1
GAMG:  Solving for p, Initial residual = 0.00791314, Final residual = 0.000353701, No Iterations 2
GAMG:  Solving for p, Initial residual = 0.0054668, Final residual = 0.000389289, No Iterations 1
GAMG:  Solving for p, Initial residual = 0.00260454, Final residual = 0.000122292, No Iterations 2
time step continuity errors : sum local = 0.0130251, global = 0.0035664, cumulative = -4.21881
ExecutionTime = 4.97 s  ClockTime = 5 s

Time = 59

smoothSolver:  Solving for Ux, Initial residual = 0.0117782, Final residual = 4.86338e-06, No Iterations 2
smoothSolver:  Solving for Uy, Initial residual = 0.0118435, Final residual = 4.82528e-06, No Iterations 2
smoothSolver:  Solving for Uz, Initial residual = 0.00985544, Final residual = 3.67761e-06, No Iterations 2
GAMG:  Solving for p, Initial residual = 0.0742964, Final residual = 0.00422026, No Iterations 1
GAMG:  Solving for p, Initial residual = 0.0183966, Final residual = 0.00165533, No Iterations 1
GAMG:  Solving for p, Initial residual = 0.00810941, Final residual = 0.000386172, No Iterations 2
GAMG:  Solving for p, Initial residual = 0.00590812, Final residual = 0.000422794, No Iterations 1
GAMG:  Solving for p, Initial residual = 0.00273296, Final residual = 0.000133812, No Iterations 2
time step continuity errors : sum local = 0.0146563, global = 0.0037131, cumulative = -4.2151
ExecutionTime = 5.05 s  ClockTime = 5 s

Time = 60

smoothSolver:  Solving for Ux, Initial residual = 0.0116872, Final residual = 4.81416e-06, No Iterations 2
smoothSolver:  Solving for Uy, Initial residual = 0.0117545, Final residual = 4.77418e-06, No Iterations 2
smoothSolver:  Solving for Uz, Initial residual = 0.00970987, Final residual = 3.60106e-06, No Iterations 2
GAMG:  Solving for p, Initial residual = 0.0721523, Final residual = 0.00408116, No Iterations 1
GAMG:  Solving for p, Initial residual = 0.0178944, Final residual = 0.00162055, No Iterations 1
GAMG:  Solving for p, Initial residual = 0.00796619, Final residual = 0.000386881, No Iterations 2
GAMG:  Solving for p, Initial residual = 0.00588378, Final residual = 0.000425779, No Iterations 1
GAMG:  Solving for p, Initial residual = 0.00273928, Final residual = 0.000136572, No Iterations 2
time step continuity errors : sum local = 0.0151865, global = 0.00374027, cumulative = -4.21136
ExecutionTime = 5.14 s  ClockTime = 5 s

Time = 61

smoothSolver:  Solving for Ux, Initial residual = 0.0116144, Final residual = 4.83092e-06, No Iterations 2
smoothSolver:  Solving for Uy, Initial residual = 0.0116677, Final residual = 4.7836e-06, No Iterations 2
smoothSolver:  Solving for Uz, Initial residual = 0.00958341, Final residual = 3.54686e-06, No Iterations 2
GAMG:  Solving for p, Initial residual = 0.0700215, Final residual = 0.00391737, No Iterations 1
GAMG:  Solving for p, Initial residual = 0.0174457, Final residual = 0.00153247, No Iterations 1
GAMG:  Solving for p, Initial residual = 0.00748062, Final residual = 0.000359697, No Iterations 2
GAMG:  Solving for p, Initial residual = 0.00544793, Final residual = 0.000399877, No Iterations 1
GAMG:  Solving for p, Initial residual = 0.00259803, Final residual = 0.000130175, No Iterations 2
time step continuity errors : sum local = 0.0144973, global = 0.00348753, cumulative = -4.20787
ExecutionTime = 5.21 s  ClockTime = 5 s

Time = 62

smoothSolver:  Solving for Ux, Initial residual = 0.0115176, Final residual = 4.80682e-06, No Iterations 2
smoothSolver:  Solving for Uy, Initial residual = 0.0115843, Final residual = 4.79848e-06, No Iterations 2
smoothSolver:  Solving for Uz, Initial residual = 0.00946005, Final residual = 3.5022e-06, No Iterations 2
GAMG:  Solving for p, Initial residual = 0.0683018, Final residual = 0.00378175, No Iterations 1
GAMG:  Solving for p, Initial residual = 0.017138, Final residual = 0.00145338, No Iterations 1
GAMG:  Solving for p, Initial residual = 0.00699283, Final residual = 0.00031081, No Iterations 2
GAMG:  Solving for p, Initial residual = 0.004758, Final residual = 0.000356997, No Iterations 1
GAMG:  Solving for p, Initial residual = 0.00237491, Final residual = 0.000117056, No Iterations 2
time step continuity errors : sum local = 0.0129229, global = 0.0031158, cumulative = -4.20476
ExecutionTime = 5.3 s  ClockTime = 5 s

Time = 63

smoothSolver:  Solving for Ux, Initial residual = 0.0114226, Final residual = 4.74995e-06, No Iterations 2
smoothSolver:  Solving for Uy, Initial residual = 0.0114991, Final residual = 4.80876e-06, No Iterations 2
smoothSolver:  Solving for Uz, Initial residual = 0.00934214, Final residual = 3.4595e-06, No Iterations 2
GAMG:  Solving for p, Initial residual = 0.0666937, Final residual = 0.00366388, No Iterations 1
GAMG:  Solving for p, Initial residual = 0.0168542, Final residual = 0.0013967, No Iterations 1
GAMG:  Solving for p, Initial residual = 0.00674351, Final residual = 0.000240684, No Iterations 2
GAMG:  Solving for p, Initial residual = 0.00396858, Final residual = 0.000305333, No Iterations 1
GAMG:  Solving for p, Initial residual = 0.00211715, Final residual = 9.3599e-05, No Iterations 2
time step continuity errors : sum local = 0.0101936, global = 0.00253312, cumulative = -4.20222
ExecutionTime = 5.38 s  ClockTime = 5 s

Time = 64

smoothSolver:  Solving for Ux, Initial residual = 0.011331, Final residual = 4.68908e-06, No Iterations 2
smoothSolver:  Solving for Uy, Initial residual = 0.0113956, Final residual = 4.76386e-06, No Iterations 2
smoothSolver:  Solving for Uz, Initial residual = 0.00920712, Final residual = 3.40232e-06, No Iterations 2
GAMG:  Solving for p, Initial residual = 0.0653343, Final residual = 0.0035753, No Iterations 1
GAMG:  Solving for p, Initial residual = 0.0165008, Final residual = 0.00134646, No Iterations 1
GAMG:  Solving for p, Initial residual = 0.00658367, Final residual = 0.00022192, No Iterations 2
GAMG:  Solving for p, Initial residual = 0.00370753, Final residual = 0.000277484, No Iterations 1
GAMG:  Solving for p, Initial residual = 0.0019958, Final residual = 7.41789e-05, No Iterations 2
time step continuity errors : sum local = 0.00798744, global = -0.00114562, cumulative = -4.20337
ExecutionTime = 5.46 s  ClockTime = 5 s

Time = 65

smoothSolver:  Solving for Ux, Initial residual = 0.0112301, Final residual = 4.63398e-06, No Iterations 2
smoothSolver:  Solving for Uy, Initial residual = 0.0112911, Final residual = 4.67418e-06, No Iterations 2
smoothSolver:  Solving for Uz, Initial residual = 0.00905911, Final residual = 3.34384e-06, No Iterations 2
GAMG:  Solving for p, Initial residual = 0.0642254, Final residual = 0.00349785, No Iterations 1
GAMG:  Solving for p, Initial residual = 0.0161748, Final residual = 0.00132454, No Iterations 1
GAMG:  Solving for p, Initial residual = 0.00649019, Final residual = 0.000236192, No Iterations 2
GAMG:  Solving for p, Initial residual = 0.00386423, Final residual = 0.000284179, No Iterations 1
GAMG:  Solving for p, Initial residual = 0.00200535, Final residual = 8.204e-05, No Iterations 2
time step continuity errors : sum local = 0.00873246, global = -0.00302041, cumulative = -4.20639
ExecutionTime = 5.54 s  ClockTime = 5 s

Time = 66

smoothSolver:  Solving for Ux, Initial residual = 0.0111313, Final residual = 4.57571e-06, No Iterations 2
smoothSolver:  Solving for Uy, Initial residual = 0.0111803, Final residual = 4.6172e-06, No Iterations 2
smoothSolver:  Solving for Uz, Initial residual = 0.00889939, Final residual = 3.27247e-06, No Iterations 2
GAMG:  Solving for p, Initial residual = 0.0633452, Final residual = 0.00342021, No Iterations 1
GAMG:  Solving for p, Initial residual = 0.0158994, Final residual = 0.00131335, No Iterations 1
GAMG:  Solving for p, Initial residual = 0.00641696, Final residual = 0.0002564, No Iterations 2
GAMG:  Solving for p, Initial residual = 0.0040275, Final residual = 0.000297256, No Iterations 1
GAMG:  Solving for p, Initial residual = 0.00203442, Final residual = 9.01227e-05, No Iterations 2
time step continuity errors : sum local = 0.00950685, global = -0.00289984, cumulative = -4.20929
ExecutionTime = 5.62 s  ClockTime = 5 s

Time = 67

smoothSolver:  Solving for Ux, Initial residual = 0.0110346, Final residual = 4.51917e-06, No Iterations 2
smoothSolver:  Solving for Uy, Initial residual = 0.0110821, Final residual = 4.53963e-06, No Iterations 2
smoothSolver:  Solving for Uz, Initial residual = 0.00873197, Final residual = 3.20627e-06, No Iterations 2
GAMG:  Solving for p, Initial residual = 0.062543, Final residual = 0.00335036, No Iterations 1
GAMG:  Solving for p, Initial residual = 0.0157553, Final residual = 0.00130213, No Iterations 1
GAMG:  Solving for p, Initial residual = 0.0063376, Final residual = 0.000261962, No Iterations 2
GAMG:  Solving for p, Initial residual = 0.00401044, Final residual = 0.000302192, No Iterations 1
GAMG:  Solving for p, Initial residual = 0.00203337, Final residual = 9.32197e-05, No Iterations 2
time step continuity errors : sum local = 0.00979261, global = -0.00284061, cumulative = -4.21213
ExecutionTime = 5.71 s  ClockTime = 5 s

Time = 68

smoothSolver:  Solving for Ux, Initial residual = 0.0109343, Final residual = 4.4595e-06, No Iterations 2
smoothSolver:  Solving for Uy, Initial residual = 0.0109878, Final residual = 4.53024e-06, No Iterations 2
smoothSolver:  Solving for Uz, Initial residual = 0.00856154, Final residual = 3.13838e-06, No Iterations 2
GAMG:  Solving for p, Initial residual = 0.0618258, Final residual = 0.00327458, No Iterations 1
GAMG:  Solving for p, Initial residual = 0.0155295, Final residual = 0.001266, No Iterations 1
GAMG:  Solving for p, Initial residual = 0.00617145, Final residual = 0.000239701, No Iterations 2
GAMG:  Solving for p, Initial residual = 0.00375364, Final residual = 0.000285164, No Iterations 1
GAMG:  Solving for p, Initial residual = 0.00194957, Final residual = 8.66711e-05, No Iterations 2
time step continuity errors : sum local = 0.00911487, global = -0.00258379, cumulative = -4.21471
ExecutionTime = 5.79 s  ClockTime = 5 s

Time = 69

smoothSolver:  Solving for Ux, Initial residual = 0.0108287, Final residual = 4.41358e-06, No Iterations 2
smoothSolver:  Solving for Uy, Initial residual = 0.010894, Final residual = 4.48148e-06, No Iterations 2
smoothSolver:  Solving for Uz, Initial residual = 0.00839179, Final residual = 3.0991e-06, No Iterations 2
GAMG:  Solving for p, Initial residual = 0.0610184, Final residual = 0.00320502, No Iterations 1
GAMG:  Solving for p, Initial residual = 0.0153199, Final residual = 0.00122173, No Iterations 1
GAMG:  Solving for p, Initial residual = 0.00601472, Final residual = 0.000600823, No Iterations 1
GAMG:  Solving for p, Initial residual = 0.00315606, Final residual = 0.000137475, No Iterations 2
GAMG:  Solving for p, Initial residual = 0.00221354, Final residual = 0.000178226, No Iterations 1
time step continuity errors : sum local = 0.0188311, global = -0.00431738, cumulative = -4.21903
ExecutionTime = 5.86 s  ClockTime = 5 s

Time = 70

smoothSolver:  Solving for Ux, Initial residual = 0.010734, Final residual = 4.38016e-06, No Iterations 2
smoothSolver:  Solving for Uy, Initial residual = 0.0107962, Final residual = 4.46216e-06, No Iterations 2
smoothSolver:  Solving for Uz, Initial residual = 0.008234, Final residual = 3.05661e-06, No Iterations 2
GAMG:  Solving for p, Initial residual = 0.06011, Final residual = 0.00315681, No Iterations 1
GAMG:  Solving for p, Initial residual = 0.0150824, Final residual = 0.00118098, No Iterations 1
GAMG:  Solving for p, Initial residual = 0.00590202, Final residual = 0.000567869, No Iterations 1
GAMG:  Solving for p, Initial residual = 0.00306143, Final residual = 0.00012008, No Iterations 2
GAMG:  Solving for p, Initial residual = 0.00199405, Final residual = 0.000162676, No Iterations 1
time step continuity errors : sum local = 0.0172965, global = -0.000954366, cumulative = -4.21999
ExecutionTime = 5.94 s  ClockTime = 6 s

Time = 71

smoothSolver:  Solving for Ux, Initial residual = 0.0106675, Final residual = 4.38564e-06, No Iterations 2
smoothSolver:  Solving for Uy, Initial residual = 0.0107205, Final residual = 4.4282e-06, No Iterations 2
smoothSolver:  Solving for Uz, Initial residual = 0.00808979, Final residual = 3.02308e-06, No Iterations 2
GAMG:  Solving for p, Initial residual = 0.0591592, Final residual = 0.00313219, No Iterations 1
GAMG:  Solving for p, Initial residual = 0.0148401, Final residual = 0.0011606, No Iterations 1
GAMG:  Solving for p, Initial residual = 0.00581184, Final residual = 0.000554939, No Iterations 1
GAMG:  Solving for p, Initial residual = 0.00302656, Final residual = 0.000116722, No Iterations 2
GAMG:  Solving for p, Initial residual = 0.0020309, Final residual = 0.00015827, No Iterations 1
time step continuity errors : sum local = 0.0169421, global = 0.00336321, cumulative = -4.21662
ExecutionTime = 6.02 s  ClockTime = 6 s

Time = 72

smoothSolver:  Solving for Ux, Initial residual = 0.0106121, Final residual = 4.39214e-06, No Iterations 2
smoothSolver:  Solving for Uy, Initial residual = 0.0106377, Final residual = 4.38853e-06, No Iterations 2
smoothSolver:  Solving for Uz, Initial residual = 0.00795334, Final residual = 2.96819e-06, No Iterations 2
GAMG:  Solving for p, Initial residual = 0.058126, Final residual = 0.00309437, No Iterations 1
GAMG:  Solving for p, Initial residual = 0.0145153, Final residual = 0.0011416, No Iterations 1
GAMG:  Solving for p, Initial residual = 0.00570773, Final residual = 0.000554151, No Iterations 1
GAMG:  Solving for p, Initial residual = 0.00302262, Final residual = 0.000134226, No Iterations 2
GAMG:  Solving for p, Initial residual = 0.00220612, Final residual = 0.000168699, No Iterations 1
time step continuity errors : sum local = 0.0182128, global = 0.00476892, cumulative = -4.21185
ExecutionTime = 6.09 s  ClockTime = 6 s

Time = 73

smoothSolver:  Solving for Ux, Initial residual = 0.0105614, Final residual = 4.37371e-06, No Iterations 2
smoothSolver:  Solving for Uy, Initial residual = 0.0105579, Final residual = 4.34458e-06, No Iterations 2
smoothSolver:  Solving for Uz, Initial residual = 0.0078281, Final residual = 2.90041e-06, No Iterations 2
GAMG:  Solving for p, Initial residual = 0.0572042, Final residual = 0.00305783, No Iterations 1
GAMG:  Solving for p, Initial residual = 0.0142697, Final residual = 0.00113865, No Iterations 1
GAMG:  Solving for p, Initial residual = 0.00566379, Final residual = 0.000565695, No Iterations 1
GAMG:  Solving for p, Initial residual = 0.00306054, Final residual = 0.000147534, No Iterations 2
GAMG:  Solving for p, Initial residual = 0.00234293, Final residual = 0.000179365, No Iterations 1
time step continuity errors : sum local = 0.0195107, global = 0.00534135, cumulative = -4.20651
ExecutionTime = 6.17 s  ClockTime = 6 s

Time = 74

smoothSolver:  Solving for Ux, Initial residual = 0.0105071, Final residual = 4.32016e-06, No Iterations 2
smoothSolver:  Solving for Uy, Initial residual = 0.0104855, Final residual = 4.29705e-06, No Iterations 2
smoothSolver:  Solving for Uz, Initial residual = 0.00770759, Final residual = 2.82692e-06, No Iterations 2
GAMG:  Solving for p, Initial residual = 0.0562204, Final residual = 0.00304588, No Iterations 1
GAMG:  Solving for p, Initial residual = 0.0140773, Final residual = 0.00114374, No Iterations 1
GAMG:  Solving for p, Initial residual = 0.00564049, Final residual = 0.000222441, No Iterations 2
GAMG:  Solving for p, Initial residual = 0.00355254, Final residual = 0.000264053, No Iterations 1
GAMG:  Solving for p, Initial residual = 0.00181352, Final residual = 8.36375e-05, No Iterations 2
time step continuity errors : sum local = 0.00914387, global = 0.00248201, cumulative = -4.20403
ExecutionTime = 6.26 s  ClockTime = 6 s

Time = 75

smoothSolver:  Solving for Ux, Initial residual = 0.0104609, Final residual = 4.26655e-06, No Iterations 2
smoothSolver:  Solving for Uy, Initial residual = 0.0104174, Final residual = 4.27721e-06, No Iterations 2
smoothSolver:  Solving for Uz, Initial residual = 0.00758981, Final residual = 2.75495e-06, No Iterations 2
GAMG:  Solving for p, Initial residual = 0.0551797, Final residual = 0.00299652, No Iterations 1
GAMG:  Solving for p, Initial residual = 0.0138742, Final residual = 0.00113205, No Iterations 1
GAMG:  Solving for p, Initial residual = 0.00557346, Final residual = 0.000214056, No Iterations 2
GAMG:  Solving for p, Initial residual = 0.00345974, Final residual = 0.00026008, No Iterations 1
GAMG:  Solving for p, Initial residual = 0.00178818, Final residual = 8.2005e-05, No Iterations 2
time step continuity errors : sum local = 0.00899436, global = 0.00246053, cumulative = -4.20157
ExecutionTime = 6.33 s  ClockTime = 6 s

Time = 76

smoothSolver:  Solving for Ux, Initial residual = 0.0104144, Final residual = 4.23114e-06, No Iterations 2
smoothSolver:  Solving for Uy, Initial residual = 0.0103416, Final residual = 4.25112e-06, No Iterations 2
smoothSolver:  Solving for Uz, Initial residual = 0.00747754, Final residual = 2.71767e-06, No Iterations 2
GAMG:  Solving for p, Initial residual = 0.054314, Final residual = 0.00294377, No Iterations 1
GAMG:  Solving for p, Initial residual = 0.0137166, Final residual = 0.0011175, No Iterations 1
GAMG:  Solving for p, Initial residual = 0.00549942, Final residual = 0.00019562, No Iterations 2
GAMG:  Solving for p, Initial residual = 0.00327195, Final residual = 0.000248779, No Iterations 1
GAMG:  Solving for p, Initial residual = 0.00172663, Final residual = 7.6965e-05, No Iterations 2
time step continuity errors : sum local = 0.00844619, global = 0.00238179, cumulative = -4.19919
ExecutionTime = 6.42 s  ClockTime = 6 s

Time = 77

smoothSolver:  Solving for Ux, Initial residual = 0.0103795, Final residual = 4.17821e-06, No Iterations 2
smoothSolver:  Solving for Uy, Initial residual = 0.0102803, Final residual = 4.21781e-06, No Iterations 2
smoothSolver:  Solving for Uz, Initial residual = 0.00736595, Final residual = 2.68474e-06, No Iterations 2
GAMG:  Solving for p, Initial residual = 0.0535232, Final residual = 0.00288431, No Iterations 1
GAMG:  Solving for p, Initial residual = 0.0135307, Final residual = 0.00108508, No Iterations 1
GAMG:  Solving for p, Initial residual = 0.00539746, Final residual = 0.000526232, No Iterations 1
GAMG:  Solving for p, Initial residual = 0.00283656, Final residual = 0.000118792, No Iterations 2
GAMG:  Solving for p, Initial residual = 0.00199176, Final residual = 0.000158872, No Iterations 1
time step continuity errors : sum local = 0.0174387, global = 0.00406745, cumulative = -4.19512
ExecutionTime = 6.49 s  ClockTime = 6 s

Time = 78

smoothSolver:  Solving for Ux, Initial residual = 0.0103342, Final residual = 4.1506e-06, No Iterations 2
smoothSolver:  Solving for Uy, Initial residual = 0.0101968, Final residual = 4.16553e-06, No Iterations 2
smoothSolver:  Solving for Uz, Initial residual = 0.00724144, Final residual = 2.64811e-06, No Iterations 2
GAMG:  Solving for p, Initial residual = 0.0528348, Final residual = 0.00282867, No Iterations 1
GAMG:  Solving for p, Initial residual = 0.0133495, Final residual = 0.00105349, No Iterations 1
GAMG:  Solving for p, Initial residual = 0.00530195, Final residual = 0.000502884, No Iterations 1
GAMG:  Solving for p, Initial residual = 0.00277832, Final residual = 0.000102498, No Iterations 2
GAMG:  Solving for p, Initial residual = 0.00184431, Final residual = 0.000145804, No Iterations 1
time step continuity errors : sum local = 0.0159979, global = 0.00308765, cumulative = -4.19203
ExecutionTime = 6.56 s  ClockTime = 6 s

Time = 79

smoothSolver:  Solving for Ux, Initial residual = 0.0102816, Final residual = 4.14182e-06, No Iterations 2
smoothSolver:  Solving for Uy, Initial residual = 0.0101167, Final residual = 4.07703e-06, No Iterations 2
smoothSolver:  Solving for Uz, Initial residual = 0.00711949, Final residual = 2.6025e-06, No Iterations 2
GAMG:  Solving for p, Initial residual = 0.0523476, Final residual = 0.00277495, No Iterations 1
GAMG:  Solving for p, Initial residual = 0.0132057, Final residual = 0.00103256, No Iterations 1
GAMG:  Solving for p, Initial residual = 0.00524113, Final residual = 0.000488987, No Iterations 1
GAMG:  Solving for p, Initial residual = 0.00273913, Final residual = 9.72139e-05, No Iterations 2
GAMG:  Solving for p, Initial residual = 0.00177034, Final residual = 0.000138108, No Iterations 1
time step continuity errors : sum local = 0.0151435, global = 0.00188356, cumulative = -4.19015
ExecutionTime = 6.65 s  ClockTime = 6 s

Time = 80

smoothSolver:  Solving for Ux, Initial residual = 0.010225, Final residual = 4.10221e-06, No Iterations 2
smoothSolver:  Solving for Uy, Initial residual = 0.0100321, Final residual = 4.02449e-06, No Iterations 2
smoothSolver:  Solving for Uz, Initial residual = 0.00698899, Final residual = 2.55008e-06, No Iterations 2
GAMG:  Solving for p, Initial residual = 0.0515699, Final residual = 0.002728, No Iterations 1
GAMG:  Solving for p, Initial residual = 0.0130089, Final residual = 0.00101606, No Iterations 1
GAMG:  Solving for p, Initial residual = 0.00517695, Final residual = 0.00048281, No Iterations 1
GAMG:  Solving for p, Initial residual = 0.002712, Final residual = 9.96473e-05, No Iterations 2
GAMG:  Solving for p, Initial residual = 0.00175565, Final residual = 0.000137587, No Iterations 1
time step continuity errors : sum local = 0.0150942, global = 0.000837758, cumulative = -4.18931
ExecutionTime = 6.72 s  ClockTime = 6 s

Time = 81

smoothSolver:  Solving for Ux, Initial residual = 0.0101575, Final residual = 4.04642e-06, No Iterations 2
smoothSolver:  Solving for Uy, Initial residual = 0.00994863, Final residual = 3.97016e-06, No Iterations 2
smoothSolver:  Solving for Uz, Initial residual = 0.00686103, Final residual = 2.4963e-06, No Iterations 2
GAMG:  Solving for p, Initial residual = 0.0507768, Final residual = 0.00267956, No Iterations 1
GAMG:  Solving for p, Initial residual = 0.0128387, Final residual = 0.00100512, No Iterations 1
GAMG:  Solving for p, Initial residual = 0.00512043, Final residual = 0.000479268, No Iterations 1
GAMG:  Solving for p, Initial residual = 0.0026864, Final residual = 0.000100426, No Iterations 2
GAMG:  Solving for p, Initial residual = 0.00174627, Final residual = 0.000136824, No Iterations 1
time step continuity errors : sum local = 0.0150383, global = 0.000687814, cumulative = -4.18862
ExecutionTime = 6.79 s  ClockTime = 6 s

Time = 82

smoothSolver:  Solving for Ux, Initial residual = 0.0100997, Final residual = 4.01668e-06, No Iterations 2
smoothSolver:  Solving for Uy, Initial residual = 0.00987674, Final residual = 3.96991e-06, No Iterations 2
smoothSolver:  Solving for Uz, Initial residual = 0.00673168, Final residual = 2.44221e-06, No Iterations 2
GAMG:  Solving for p, Initial residual = 0.0501014, Final residual = 0.00264996, No Iterations 1
GAMG:  Solving for p, Initial residual = 0.0126738, Final residual = 0.000993136, No Iterations 1
GAMG:  Solving for p, Initial residual = 0.00507193, Final residual = 0.000475606, No Iterations 1
GAMG:  Solving for p, Initial residual = 0.00266632, Final residual = 9.96165e-05, No Iterations 2
GAMG:  Solving for p, Initial residual = 0.0017446, Final residual = 0.000135663, No Iterations 1
time step continuity errors : sum local = 0.0149434, global = 0.00106148, cumulative = -4.18756
ExecutionTime = 6.88 s  ClockTime = 7 s

Time = 83

smoothSolver:  Solving for Ux, Initial residual = 0.01005, Final residual = 3.99146e-06, No Iterations 2
[...]
GAMG:  Solving for p, Initial residual = 0.000816792, Final residual = 6.82255e-05, No Iterations 1
GAMG:  Solving for p, Initial residual = 0.000434293, Final residual = 2.72794e-05, No Iterations 2
time step continuity errors : sum local = 4.11189e+09, global = -1.04765e+09, cumulative = -3.6963e+10
ExecutionTime = 158.88 s  ClockTime = 159 s

Time = 1981

smoothSolver:  Solving for Ux, Initial residual = 0.0142749, Final residual = 1.13333e-05, No Iterations 2
smoothSolver:  Solving for Uy, Initial residual = 0.0144167, Final residual = 1.02509e-05, No Iterations 2
smoothSolver:  Solving for Uz, Initial residual = 0.0141678, Final residual = 1.16364e-05, No Iterations 2
GAMG:  Solving for p, Initial residual = 0.00795142, Final residual = 0.00054619, No Iterations 1
GAMG:  Solving for p, Initial residual = 0.00296542, Final residual = 0.000255513, No Iterations 1
GAMG:  Solving for p, Initial residual = 0.00139976, Final residual = 0.000139808, No Iterations 1
GAMG:  Solving for p, Initial residual = 0.000750745, Final residual = 4.47148e-05, No Iterations 2
GAMG:  Solving for p, Initial residual = 0.000523629, Final residual = 4.7844e-05, No Iterations 1
time step continuity errors : sum local = 7.45125e+09, global = -1.16519e+09, cumulative = -3.81282e+10
ExecutionTime = 158.96 s  ClockTime = 159 s

Time = 1982

smoothSolver:  Solving for Ux, Initial residual = 0.0142719, Final residual = 1.13406e-05, No Iterations 2
smoothSolver:  Solving for Uy, Initial residual = 0.014414, Final residual = 1.0282e-05, No Iterations 2
smoothSolver:  Solving for Uz, Initial residual = 0.0141649, Final residual = 1.16625e-05, No Iterations 2
GAMG:  Solving for p, Initial residual = 0.00797351, Final residual = 0.00054856, No Iterations 1
GAMG:  Solving for p, Initial residual = 0.00296673, Final residual = 0.000255796, No Iterations 1
GAMG:  Solving for p, Initial residual = 0.00139911, Final residual = 6.16178e-05, No Iterations 2
GAMG:  Solving for p, Initial residual = 0.000820754, Final residual = 6.84687e-05, No Iterations 1
GAMG:  Solving for p, Initial residual = 0.000436056, Final residual = 2.73348e-05, No Iterations 2
time step continuity errors : sum local = 4.35466e+09, global = -1.10593e+09, cumulative = -3.92342e+10
ExecutionTime = 159.04 s  ClockTime = 159 s

Time = 1983

smoothSolver:  Solving for Ux, Initial residual = 0.0142856, Final residual = 1.13374e-05, No Iterations 2
smoothSolver:  Solving for Uy, Initial residual = 0.0144183, Final residual = 1.02628e-05, No Iterations 2
smoothSolver:  Solving for Uz, Initial residual = 0.0141625, Final residual = 1.16463e-05, No Iterations 2
GAMG:  Solving for p, Initial residual = 0.00794695, Final residual = 0.000546811, No Iterations 1
GAMG:  Solving for p, Initial residual = 0.00295745, Final residual = 0.000254766, No Iterations 1
GAMG:  Solving for p, Initial residual = 0.00139534, Final residual = 0.000139362, No Iterations 1
GAMG:  Solving for p, Initial residual = 0.000748479, Final residual = 4.45838e-05, No Iterations 2
GAMG:  Solving for p, Initial residual = 0.000522006, Final residual = 4.76653e-05, No Iterations 1
time step continuity errors : sum local = 7.91061e+09, global = -1.24182e+09, cumulative = -4.0476e+10
ExecutionTime = 159.12 s  ClockTime = 159 s

Time = 1984

smoothSolver:  Solving for Ux, Initial residual = 0.0142722, Final residual = 1.1313e-05, No Iterations 2
smoothSolver:  Solving for Uy, Initial residual = 0.0144069, Final residual = 1.02398e-05, No Iterations 2
smoothSolver:  Solving for Uz, Initial residual = 0.0141518, Final residual = 1.16427e-05, No Iterations 2
GAMG:  Solving for p, Initial residual = 0.00795727, Final residual = 0.000548272, No Iterations 1
GAMG:  Solving for p, Initial residual = 0.00295686, Final residual = 0.000255396, No Iterations 1
GAMG:  Solving for p, Initial residual = 0.00139492, Final residual = 6.16255e-05, No Iterations 2
GAMG:  Solving for p, Initial residual = 0.000818255, Final residual = 6.83386e-05, No Iterations 1
GAMG:  Solving for p, Initial residual = 0.000434092, Final residual = 2.72785e-05, No Iterations 2
time step continuity errors : sum local = 4.63276e+09, global = -1.1847e+09, cumulative = -4.16607e+10
ExecutionTime = 159.2 s  ClockTime = 159 s

Time = 1985

smoothSolver:  Solving for Ux, Initial residual = 0.0142858, Final residual = 1.13129e-05, No Iterations 2
smoothSolver:  Solving for Uy, Initial residual = 0.0144183, Final residual = 1.02733e-05, No Iterations 2
smoothSolver:  Solving for Uz, Initial residual = 0.0141514, Final residual = 1.16541e-05, No Iterations 2
GAMG:  Solving for p, Initial residual = 0.00794159, Final residual = 0.000546488, No Iterations 1
GAMG:  Solving for p, Initial residual = 0.00294914, Final residual = 0.00025459, No Iterations 1
GAMG:  Solving for p, Initial residual = 0.00139158, Final residual = 6.12009e-05, No Iterations 2
GAMG:  Solving for p, Initial residual = 0.000814869, Final residual = 6.7806e-05, No Iterations 1
GAMG:  Solving for p, Initial residual = 0.000431611, Final residual = 2.70345e-05, No Iterations 2
time step continuity errors : sum local = 4.74403e+09, global = -1.21436e+09, cumulative = -4.2875e+10
ExecutionTime = 159.27 s  ClockTime = 159 s

Time = 1986

smoothSolver:  Solving for Ux, Initial residual = 0.0142855, Final residual = 1.12791e-05, No Iterations 2
smoothSolver:  Solving for Uy, Initial residual = 0.0144263, Final residual = 1.0322e-05, No Iterations 2
smoothSolver:  Solving for Uz, Initial residual = 0.0141407, Final residual = 1.16585e-05, No Iterations 2
GAMG:  Solving for p, Initial residual = 0.00789973, Final residual = 0.000541733, No Iterations 1
GAMG:  Solving for p, Initial residual = 0.00293911, Final residual = 0.000253102, No Iterations 1
GAMG:  Solving for p, Initial residual = 0.00138563, Final residual = 0.000138089, No Iterations 1
GAMG:  Solving for p, Initial residual = 0.000741142, Final residual = 4.39499e-05, No Iterations 2
GAMG:  Solving for p, Initial residual = 0.000515101, Final residual = 4.69427e-05, No Iterations 1
time step continuity errors : sum local = 8.59938e+09, global = -1.34759e+09, cumulative = -4.42226e+10
ExecutionTime = 159.35 s  ClockTime = 159 s

Time = 1987

smoothSolver:  Solving for Ux, Initial residual = 0.0142845, Final residual = 1.12503e-05, No Iterations 2
smoothSolver:  Solving for Uy, Initial residual = 0.0144282, Final residual = 1.02715e-05, No Iterations 2
smoothSolver:  Solving for Uz, Initial residual = 0.0141205, Final residual = 1.16439e-05, No Iterations 2
GAMG:  Solving for p, Initial residual = 0.0078877, Final residual = 0.000541432, No Iterations 1
GAMG:  Solving for p, Initial residual = 0.0029389, Final residual = 0.000253535, No Iterations 1
GAMG:  Solving for p, Initial residual = 0.00138506, Final residual = 6.09759e-05, No Iterations 2
GAMG:  Solving for p, Initial residual = 0.000810546, Final residual = 6.74024e-05, No Iterations 1
GAMG:  Solving for p, Initial residual = 0.000428946, Final residual = 2.68752e-05, No Iterations 2
time step continuity errors : sum local = 5.0325e+09, global = -1.27171e+09, cumulative = -4.54943e+10
ExecutionTime = 159.43 s  ClockTime = 159 s

Time = 1988

smoothSolver:  Solving for Ux, Initial residual = 0.014309, Final residual = 1.1256e-05, No Iterations 2
smoothSolver:  Solving for Uy, Initial residual = 0.0144476, Final residual = 1.0298e-05, No Iterations 2
smoothSolver:  Solving for Uz, Initial residual = 0.0141141, Final residual = 1.16575e-05, No Iterations 2
GAMG:  Solving for p, Initial residual = 0.0078534, Final residual = 0.000537746, No Iterations 1
GAMG:  Solving for p, Initial residual = 0.00293385, Final residual = 0.000252841, No Iterations 1
GAMG:  Solving for p, Initial residual = 0.00138281, Final residual = 0.000137952, No Iterations 1
GAMG:  Solving for p, Initial residual = 0.000740895, Final residual = 4.40408e-05, No Iterations 2
GAMG:  Solving for p, Initial residual = 0.00051543, Final residual = 4.6967e-05, No Iterations 1
time step continuity errors : sum local = 9.14576e+09, global = -1.41071e+09, cumulative = -4.6905e+10
ExecutionTime = 159.51 s  ClockTime = 159 s

Time = 1989

smoothSolver:  Solving for Ux, Initial residual = 0.0143079, Final residual = 1.12375e-05, No Iterations 2
smoothSolver:  Solving for Uy, Initial residual = 0.0144414, Final residual = 1.02762e-05, No Iterations 2
smoothSolver:  Solving for Uz, Initial residual = 0.0140962, Final residual = 1.16541e-05, No Iterations 2
GAMG:  Solving for p, Initial residual = 0.0078279, Final residual = 0.000536352, No Iterations 1
GAMG:  Solving for p, Initial residual = 0.00292676, Final residual = 0.000252859, No Iterations 1
GAMG:  Solving for p, Initial residual = 0.00137869, Final residual = 6.09606e-05, No Iterations 2
GAMG:  Solving for p, Initial residual = 0.00080789, Final residual = 6.7328e-05, No Iterations 1
GAMG:  Solving for p, Initial residual = 0.000427966, Final residual = 2.68917e-05, No Iterations 2
time step continuity errors : sum local = 5.36318e+09, global = -1.34066e+09, cumulative = -4.82457e+10
ExecutionTime = 159.59 s  ClockTime = 159 s

Time = 1990

smoothSolver:  Solving for Ux, Initial residual = 0.0143305, Final residual = 1.12603e-05, No Iterations 2
smoothSolver:  Solving for Uy, Initial residual = 0.0144518, Final residual = 1.03195e-05, No Iterations 2
smoothSolver:  Solving for Uz, Initial residual = 0.0140964, Final residual = 1.16816e-05, No Iterations 2
GAMG:  Solving for p, Initial residual = 0.00784106, Final residual = 0.000536557, No Iterations 1
GAMG:  Solving for p, Initial residual = 0.00293606, Final residual = 0.000253618, No Iterations 1
GAMG:  Solving for p, Initial residual = 0.00138279, Final residual = 6.09623e-05, No Iterations 2
GAMG:  Solving for p, Initial residual = 0.000809996, Final residual = 6.74949e-05, No Iterations 1
GAMG:  Solving for p, Initial residual = 0.000429564, Final residual = 2.68748e-05, No Iterations 2
time step continuity errors : sum local = 5.4992e+09, global = -1.36587e+09, cumulative = -4.96116e+10
ExecutionTime = 159.67 s  ClockTime = 159 s

Time = 1991

smoothSolver:  Solving for Ux, Initial residual = 0.0143304, Final residual = 1.12465e-05, No Iterations 2
smoothSolver:  Solving for Uy, Initial residual = 0.0144393, Final residual = 1.03005e-05, No Iterations 2
smoothSolver:  Solving for Uz, Initial residual = 0.0140832, Final residual = 1.16633e-05, No Iterations 2
GAMG:  Solving for p, Initial residual = 0.00781761, Final residual = 0.000533983, No Iterations 1
GAMG:  Solving for p, Initial residual = 0.00293239, Final residual = 0.000252997, No Iterations 1
GAMG:  Solving for p, Initial residual = 0.00138082, Final residual = 0.000137785, No Iterations 1
GAMG:  Solving for p, Initial residual = 0.000739934, Final residual = 4.39355e-05, No Iterations 2
GAMG:  Solving for p, Initial residual = 0.000514975, Final residual = 4.69288e-05, No Iterations 1
time step continuity errors : sum local = 9.96552e+09, global = -1.53205e+09, cumulative = -5.11436e+10
ExecutionTime = 159.75 s  ClockTime = 159 s

Time = 1992

smoothSolver:  Solving for Ux, Initial residual = 0.0143203, Final residual = 1.12455e-05, No Iterations 2
smoothSolver:  Solving for Uy, Initial residual = 0.0144187, Final residual = 1.02848e-05, No Iterations 2
smoothSolver:  Solving for Uz, Initial residual = 0.0140695, Final residual = 1.16768e-05, No Iterations 2
GAMG:  Solving for p, Initial residual = 0.0078054, Final residual = 0.000534546, No Iterations 1
GAMG:  Solving for p, Initial residual = 0.00292716, Final residual = 0.000253267, No Iterations 1
GAMG:  Solving for p, Initial residual = 0.00137804, Final residual = 6.08647e-05, No Iterations 2
GAMG:  Solving for p, Initial residual = 0.000807245, Final residual = 6.74248e-05, No Iterations 1
GAMG:  Solving for p, Initial residual = 0.000428414, Final residual = 2.68507e-05, No Iterations 2
time step continuity errors : sum local = 5.83419e+09, global = -1.45623e+09, cumulative = -5.25999e+10
ExecutionTime = 159.83 s  ClockTime = 160 s

Time = 1993

smoothSolver:  Solving for Ux, Initial residual = 0.0143327, Final residual = 1.12868e-05, No Iterations 2
smoothSolver:  Solving for Uy, Initial residual = 0.0144192, Final residual = 1.03729e-05, No Iterations 2
smoothSolver:  Solving for Uz, Initial residual = 0.0140675, Final residual = 1.17145e-05, No Iterations 2
GAMG:  Solving for p, Initial residual = 0.00781907, Final residual = 0.000534199, No Iterations 1
GAMG:  Solving for p, Initial residual = 0.002932, Final residual = 0.000253501, No Iterations 1
GAMG:  Solving for p, Initial residual = 0.00138008, Final residual = 6.07508e-05, No Iterations 2
GAMG:  Solving for p, Initial residual = 0.000808041, Final residual = 6.73055e-05, No Iterations 1
GAMG:  Solving for p, Initial residual = 0.000428756, Final residual = 2.67943e-05, No Iterations 2
time step continuity errors : sum local = 5.97408e+09, global = -1.49318e+09, cumulative = -5.4093e+10
ExecutionTime = 159.91 s  ClockTime = 160 s

Time = 1994

smoothSolver:  Solving for Ux, Initial residual = 0.0143258, Final residual = 1.12635e-05, No Iterations 2
smoothSolver:  Solving for Uy, Initial residual = 0.0144002, Final residual = 1.03006e-05, No Iterations 2
smoothSolver:  Solving for Uz, Initial residual = 0.0140535, Final residual = 1.1683e-05, No Iterations 2
GAMG:  Solving for p, Initial residual = 0.0078012, Final residual = 0.00053321, No Iterations 1
GAMG:  Solving for p, Initial residual = 0.00292934, Final residual = 0.00025303, No Iterations 1
GAMG:  Solving for p, Initial residual = 0.00137945, Final residual = 0.000137926, No Iterations 1
GAMG:  Solving for p, Initial residual = 0.000739189, Final residual = 4.39147e-05, No Iterations 2
GAMG:  Solving for p, Initial residual = 0.000515159, Final residual = 4.70336e-05, No Iterations 1
time step continuity errors : sum local = 1.08807e+10, global = -1.66495e+09, cumulative = -5.5758e+10
ExecutionTime = 159.99 s  ClockTime = 160 s

Time = 1995

smoothSolver:  Solving for Ux, Initial residual = 0.0143121, Final residual = 1.12633e-05, No Iterations 2
smoothSolver:  Solving for Uy, Initial residual = 0.0143719, Final residual = 1.02732e-05, No Iterations 2
smoothSolver:  Solving for Uz, Initial residual = 0.0140384, Final residual = 1.16878e-05, No Iterations 2
GAMG:  Solving for p, Initial residual = 0.00779118, Final residual = 0.000533671, No Iterations 1
GAMG:  Solving for p, Initial residual = 0.00292199, Final residual = 0.000252893, No Iterations 1
GAMG:  Solving for p, Initial residual = 0.00137588, Final residual = 6.07709e-05, No Iterations 2
GAMG:  Solving for p, Initial residual = 0.000805168, Final residual = 6.73631e-05, No Iterations 1
GAMG:  Solving for p, Initial residual = 0.000427388, Final residual = 2.68169e-05, No Iterations 2
time step continuity errors : sum local = 6.35067e+09, global = -1.59159e+09, cumulative = -5.73496e+10
ExecutionTime = 160.07 s  ClockTime = 160 s

Time = 1996

smoothSolver:  Solving for Ux, Initial residual = 0.014319, Final residual = 1.12846e-05, No Iterations 2
smoothSolver:  Solving for Uy, Initial residual = 0.0143672, Final residual = 1.02891e-05, No Iterations 2
smoothSolver:  Solving for Uz, Initial residual = 0.0140354, Final residual = 1.16976e-05, No Iterations 2
GAMG:  Solving for p, Initial residual = 0.00778873, Final residual = 0.000533439, No Iterations 1
GAMG:  Solving for p, Initial residual = 0.00292279, Final residual = 0.000252861, No Iterations 1
GAMG:  Solving for p, Initial residual = 0.00137695, Final residual = 6.0687e-05, No Iterations 2
GAMG:  Solving for p, Initial residual = 0.000805357, Final residual = 6.7401e-05, No Iterations 1
GAMG:  Solving for p, Initial residual = 0.000427763, Final residual = 2.67638e-05, No Iterations 2
time step continuity errors : sum local = 6.52092e+09, global = -1.62328e+09, cumulative = -5.89729e+10
ExecutionTime = 160.15 s  ClockTime = 160 s

Time = 1997

smoothSolver:  Solving for Ux, Initial residual = 0.0143095, Final residual = 1.12877e-05, No Iterations 2
smoothSolver:  Solving for Uy, Initial residual = 0.0143513, Final residual = 1.02809e-05, No Iterations 2
smoothSolver:  Solving for Uz, Initial residual = 0.0140259, Final residual = 1.16893e-05, No Iterations 2
GAMG:  Solving for p, Initial residual = 0.00778504, Final residual = 0.000532409, No Iterations 1
GAMG:  Solving for p, Initial residual = 0.00292193, Final residual = 0.000252483, No Iterations 1
GAMG:  Solving for p, Initial residual = 0.00137641, Final residual = 6.04595e-05, No Iterations 2
GAMG:  Solving for p, Initial residual = 0.000804154, Final residual = 6.71763e-05, No Iterations 1
GAMG:  Solving for p, Initial residual = 0.000426966, Final residual = 2.66506e-05, No Iterations 2
time step continuity errors : sum local = 6.67384e+09, global = -1.65428e+09, cumulative = -6.06271e+10
ExecutionTime = 160.23 s  ClockTime = 160 s

Time = 1998

smoothSolver:  Solving for Ux, Initial residual = 0.0142993, Final residual = 1.12824e-05, No Iterations 2
smoothSolver:  Solving for Uy, Initial residual = 0.014334, Final residual = 1.02419e-05, No Iterations 2
smoothSolver:  Solving for Uz, Initial residual = 0.0140214, Final residual = 1.16809e-05, No Iterations 2
GAMG:  Solving for p, Initial residual = 0.00776877, Final residual = 0.000531417, No Iterations 1
GAMG:  Solving for p, Initial residual = 0.00291894, Final residual = 0.000251927, No Iterations 1
GAMG:  Solving for p, Initial residual = 0.00137577, Final residual = 6.01833e-05, No Iterations 2
GAMG:  Solving for p, Initial residual = 0.000802648, Final residual = 6.70592e-05, No Iterations 1
GAMG:  Solving for p, Initial residual = 0.000426291, Final residual = 2.65049e-05, No Iterations 2
time step continuity errors : sum local = 6.8311e+09, global = -1.67663e+09, cumulative = -6.23038e+10
ExecutionTime = 160.31 s  ClockTime = 160 s

Time = 1999

smoothSolver:  Solving for Ux, Initial residual = 0.0142875, Final residual = 1.12921e-05, No Iterations 2
smoothSolver:  Solving for Uy, Initial residual = 0.0143164, Final residual = 1.0246e-05, No Iterations 2
smoothSolver:  Solving for Uz, Initial residual = 0.0140186, Final residual = 1.16815e-05, No Iterations 2
GAMG:  Solving for p, Initial residual = 0.00778344, Final residual = 0.000531809, No Iterations 1
GAMG:  Solving for p, Initial residual = 0.00292183, Final residual = 0.000251839, No Iterations 1
GAMG:  Solving for p, Initial residual = 0.00137666, Final residual = 0.000137474, No Iterations 1
GAMG:  Solving for p, Initial residual = 0.000735366, Final residual = 4.36179e-05, No Iterations 2
GAMG:  Solving for p, Initial residual = 0.000513648, Final residual = 4.6847e-05, No Iterations 1
time step continuity errors : sum local = 1.24927e+10, global = -1.85882e+09, cumulative = -6.41626e+10
ExecutionTime = 160.39 s  ClockTime = 160 s

Time = 2000

smoothSolver:  Solving for Ux, Initial residual = 0.0142648, Final residual = 1.1281e-05, No Iterations 2
smoothSolver:  Solving for Uy, Initial residual = 0.0142903, Final residual = 1.01779e-05, No Iterations 2
smoothSolver:  Solving for Uz, Initial residual = 0.0140126, Final residual = 1.16735e-05, No Iterations 2
GAMG:  Solving for p, Initial residual = 0.00778158, Final residual = 0.000533808, No Iterations 1
GAMG:  Solving for p, Initial residual = 0.00291412, Final residual = 0.000251869, No Iterations 1
GAMG:  Solving for p, Initial residual = 0.00137307, Final residual = 6.04331e-05, No Iterations 2
GAMG:  Solving for p, Initial residual = 0.00080204, Final residual = 6.73287e-05, No Iterations 1
GAMG:  Solving for p, Initial residual = 0.000426537, Final residual = 2.66588e-05, No Iterations 2
time step continuity errors : sum local = 7.28185e+09, global = -1.78845e+09, cumulative = -6.5951e+10
ExecutionTime = 160.63 s  ClockTime = 160 s

End

