/*---------------------------------------------------------------------------*\
| =========                 |                                                 |
| \\      /  F ield         | OpenFOAM: The Open Source CFD Toolbox           |
|  \\    /   O peration     | Version:  2506                                  |
|   \\  /    A nd           | Website:  www.openfoam.com                      |
|    \\/     M anipulation  |                                                 |
\*---------------------------------------------------------------------------*/
Build  : _615aae61-20250627 OPENFOAM=2506 version=2506
Arch   : "LSB;label=32;scalar=64"
Exec   : simpleFoam -noFunctionObjects -case /home/ubuntu/fan_CFD_dataset/cases/fan_11
Date   : Nov 07 2025
Time   : 14:43:35
Host   : ip-172-31-37-87
PID    : 169226
I/O    : uncollated
Case   : /home/ubuntu/fan_CFD_dataset/cases/fan_11
nProcs : 1
trapFpe: Floating point exception trapping enabled (FOAM_SIGFPE).
fileModificationChecking : Monitoring run-time modified files using timeStampMaster (fileModificationSkew 5, maxFileModificationPolls 20)
allowSystemOperations : Allowing user-supplied system call operations

// * * * * * * * * * * * * * * * * * * * * * * * * * * * * * * * * * * * * * //
Create time

Create mesh for time = 0


SIMPLE: convergence criteria
    field U	 tolerance 1e-05
    field p	 tolerance 0.0001

Reading field p

Reading field U

Reading/calculating face flux field phi

Selecting incompressible transport model Newtonian
Selecting turbulence model type laminar
Selecting laminar stress model Stokes
No MRF models present

No finite volume options present

Starting time loop

Time = 1

smoothSolver:  Solving for Ux, Initial residual = 1, Final residual = 0.000283166, No Iterations 2
smoothSolver:  Solving for Uy, Initial residual = 1, Final residual = 0.000331698, No Iterations 2
smoothSolver:  Solving for Uz, Initial residual = 1, Final residual = 0.000519887, No Iterations 2
GAMG:  Solving for p, Initial residual = 1, Final residual = 0.0869721, No Iterations 3
GAMG:  Solving for p, Initial residual = 0.11619, Final residual = 0.00773368, No Iterations 1
GAMG:  Solving for p, Initial residual = 0.037005, Final residual = 0.00331918, No Iterations 1
GAMG:  Solving for p, Initial residual = 0.0195951, Final residual = 0.00188127, No Iterations 1
GAMG:  Solving for p, Initial residual = 0.0125813, Final residual = 0.00121613, No Iterations 1
time step continuity errors : sum local = 18.6819, global = -5.913, cumulative = -5.913
ExecutionTime = 0.22 s  ClockTime = 0 s

Time = 2

smoothSolver:  Solving for Ux, Initial residual = 0.061509, Final residual = 2.6266e-05, No Iterations 2
smoothSolver:  Solving for Uy, Initial residual = 0.0579952, Final residual = 2.53689e-05, No Iterations 2
smoothSolver:  Solving for Uz, Initial residual = 0.174254, Final residual = 5.25053e-05, No Iterations 2
GAMG:  Solving for p, Initial residual = 0.436669, Final residual = 0.0201185, No Iterations 4
GAMG:  Solving for p, Initial residual = 0.043135, Final residual = 0.00288591, No Iterations 1
GAMG:  Solving for p, Initial residual = 0.0166135, Final residual = 0.00144594, No Iterations 1
GAMG:  Solving for p, Initial residual = 0.00928838, Final residual = 0.000852229, No Iterations 1
GAMG:  Solving for p, Initial residual = 0.00620354, Final residual = 0.000573436, No Iterations 1
time step continuity errors : sum local = 19.5624, global = -5.46707, cumulative = -11.3801
ExecutionTime = 0.28 s  ClockTime = 0 s

Time = 3

smoothSolver:  Solving for Ux, Initial residual = 0.189554, Final residual = 8.04201e-05, No Iterations 2
smoothSolver:  Solving for Uy, Initial residual = 0.192626, Final residual = 8.2953e-05, No Iterations 2
smoothSolver:  Solving for Uz, Initial residual = 0.419377, Final residual = 0.000155918, No Iterations 2
GAMG:  Solving for p, Initial residual = 0.0558543, Final residual = 0.00357005, No Iterations 3
GAMG:  Solving for p, Initial residual = 0.0452584, Final residual = 0.00295928, No Iterations 1
GAMG:  Solving for p, Initial residual = 0.0166543, Final residual = 0.00145203, No Iterations 1
GAMG:  Solving for p, Initial residual = 0.00955752, Final residual = 0.000883377, No Iterations 1
GAMG:  Solving for p, Initial residual = 0.0064083, Final residual = 0.000600282, No Iterations 1
time step continuity errors : sum local = 10.9359, global = -2.97772, cumulative = -14.3578
ExecutionTime = 0.36 s  ClockTime = 0 s

Time = 4

smoothSolver:  Solving for Ux, Initial residual = 0.176631, Final residual = 7.19278e-05, No Iterations 2
smoothSolver:  Solving for Uy, Initial residual = 0.177496, Final residual = 7.30212e-05, No Iterations 2
smoothSolver:  Solving for Uz, Initial residual = 0.460859, Final residual = 0.000178473, No Iterations 2
GAMG:  Solving for p, Initial residual = 0.0261847, Final residual = 0.002597, No Iterations 1
GAMG:  Solving for p, Initial residual = 0.013473, Final residual = 0.00134576, No Iterations 1
GAMG:  Solving for p, Initial residual = 0.00899209, Final residual = 0.000821621, No Iterations 1
GAMG:  Solving for p, Initial residual = 0.00614377, Final residual = 0.000553058, No Iterations 1
GAMG:  Solving for p, Initial residual = 0.00427701, Final residual = 0.000386952, No Iterations 1
time step continuity errors : sum local = 4.67422, global = -1.18177, cumulative = -15.5396
ExecutionTime = 0.41 s  ClockTime = 0 s

Time = 5

smoothSolver:  Solving for Ux, Initial residual = 0.13388, Final residual = 5.25102e-05, No Iterations 2
smoothSolver:  Solving for Uy, Initial residual = 0.134582, Final residual = 5.30404e-05, No Iterations 2
smoothSolver:  Solving for Uz, Initial residual = 0.411485, Final residual = 0.000157815, No Iterations 2
GAMG:  Solving for p, Initial residual = 0.0268589, Final residual = 0.00170116, No Iterations 2
GAMG:  Solving for p, Initial residual = 0.0504593, Final residual = 0.00336367, No Iterations 1
GAMG:  Solving for p, Initial residual = 0.02202, Final residual = 0.00201267, No Iterations 1
GAMG:  Solving for p, Initial residual = 0.0171477, Final residual = 0.00151301, No Iterations 1
GAMG:  Solving for p, Initial residual = 0.0125034, Final residual = 0.00114847, No Iterations 1
time step continuity errors : sum local = 4.07934, global = 1.03126, cumulative = -14.5083
ExecutionTime = 0.47 s  ClockTime = 0 s

Time = 6

smoothSolver:  Solving for Ux, Initial residual = 0.0927413, Final residual = 3.79802e-05, No Iterations 2
smoothSolver:  Solving for Uy, Initial residual = 0.0936192, Final residual = 3.86258e-05, No Iterations 2
smoothSolver:  Solving for Uz, Initial residual = 0.314427, Final residual = 0.00012181, No Iterations 2
GAMG:  Solving for p, Initial residual = 0.0356813, Final residual = 0.00218447, No Iterations 3
GAMG:  Solving for p, Initial residual = 0.13412, Final residual = 0.00887307, No Iterations 1
GAMG:  Solving for p, Initial residual = 0.0545937, Final residual = 0.00472142, No Iterations 1
GAMG:  Solving for p, Initial residual = 0.0297936, Final residual = 0.00272566, No Iterations 1
GAMG:  Solving for p, Initial residual = 0.0188676, Final residual = 0.00173242, No Iterations 1
time step continuity errors : sum local = 8.15333, global = 2.22072, cumulative = -12.2876
ExecutionTime = 0.54 s  ClockTime = 0 s

Time = 7

smoothSolver:  Solving for Ux, Initial residual = 0.0574111, Final residual = 2.57873e-05, No Iterations 2
smoothSolver:  Solving for Uy, Initial residual = 0.0587495, Final residual = 2.62249e-05, No Iterations 2
smoothSolver:  Solving for Uz, Initial residual = 0.196687, Final residual = 8.02743e-05, No Iterations 2
GAMG:  Solving for p, Initial residual = 0.0526516, Final residual = 0.00364642, No Iterations 3
GAMG:  Solving for p, Initial residual = 0.0920003, Final residual = 0.00607214, No Iterations 1
GAMG:  Solving for p, Initial residual = 0.0356045, Final residual = 0.00308804, No Iterations 1
GAMG:  Solving for p, Initial residual = 0.0199314, Final residual = 0.00181747, No Iterations 1
GAMG:  Solving for p, Initial residual = 0.0129609, Final residual = 0.00119074, No Iterations 1
time step continuity errors : sum local = 10.3948, global = 2.87622, cumulative = -9.41136
ExecutionTime = 0.61 s  ClockTime = 0 s

Time = 8

smoothSolver:  Solving for Ux, Initial residual = 0.035336, Final residual = 1.89133e-05, No Iterations 2
smoothSolver:  Solving for Uy, Initial residual = 0.036993, Final residual = 1.91542e-05, No Iterations 2
smoothSolver:  Solving for Uz, Initial residual = 0.093303, Final residual = 4.60554e-05, No Iterations 2
GAMG:  Solving for p, Initial residual = 0.106485, Final residual = 0.00680901, No Iterations 3
GAMG:  Solving for p, Initial residual = 0.0747783, Final residual = 0.0049385, No Iterations 1
GAMG:  Solving for p, Initial residual = 0.0284464, Final residual = 0.00247715, No Iterations 1
GAMG:  Solving for p, Initial residual = 0.0163668, Final residual = 0.0014904, No Iterations 1
GAMG:  Solving for p, Initial residual = 0.010827, Final residual = 0.000997817, No Iterations 1
time step continuity errors : sum local = 10.1651, global = 2.87961, cumulative = -6.53175
ExecutionTime = 0.67 s  ClockTime = 1 s

Time = 9

smoothSolver:  Solving for Ux, Initial residual = 0.034043, Final residual = 1.94323e-05, No Iterations 2
smoothSolver:  Solving for Uy, Initial residual = 0.0348661, Final residual = 1.92457e-05, No Iterations 2
smoothSolver:  Solving for Uz, Initial residual = 0.0672324, Final residual = 3.67101e-05, No Iterations 2
GAMG:  Solving for p, Initial residual = 0.203449, Final residual = 0.0172429, No Iterations 2
GAMG:  Solving for p, Initial residual = 0.060318, Final residual = 0.00398335, No Iterations 1
GAMG:  Solving for p, Initial residual = 0.0242638, Final residual = 0.0022128, No Iterations 1
GAMG:  Solving for p, Initial residual = 0.015948, Final residual = 0.00139768, No Iterations 1
GAMG:  Solving for p, Initial residual = 0.010384, Final residual = 0.000951525, No Iterations 1
time step continuity errors : sum local = 8.73367, global = 2.42245, cumulative = -4.1093
ExecutionTime = 0.73 s  ClockTime = 1 s

Time = 10

smoothSolver:  Solving for Ux, Initial residual = 0.0449275, Final residual = 2.30065e-05, No Iterations 2
smoothSolver:  Solving for Uy, Initial residual = 0.0449012, Final residual = 2.29263e-05, No Iterations 2
smoothSolver:  Solving for Uz, Initial residual = 0.120245, Final residual = 5.16501e-05, No Iterations 2
GAMG:  Solving for p, Initial residual = 0.0936515, Final residual = 0.00472886, No Iterations 2
GAMG:  Solving for p, Initial residual = 0.0434015, Final residual = 0.00286102, No Iterations 1
GAMG:  Solving for p, Initial residual = 0.0186008, Final residual = 0.001707, No Iterations 1
GAMG:  Solving for p, Initial residual = 0.0128266, Final residual = 0.00112066, No Iterations 1
GAMG:  Solving for p, Initial residual = 0.00854756, Final residual = 0.000787742, No Iterations 1
time step continuity errors : sum local = 5.41161, global = 1.46095, cumulative = -2.64835
ExecutionTime = 0.8 s  ClockTime = 1 s

Time = 11

smoothSolver:  Solving for Ux, Initial residual = 0.0548349, Final residual = 2.61678e-05, No Iterations 2
smoothSolver:  Solving for Uy, Initial residual = 0.0544521, Final residual = 2.62431e-05, No Iterations 2
smoothSolver:  Solving for Uz, Initial residual = 0.172152, Final residual = 6.74594e-05, No Iterations 2
GAMG:  Solving for p, Initial residual = 0.0718033, Final residual = 0.00618566, No Iterations 1
GAMG:  Solving for p, Initial residual = 0.0286516, Final residual = 0.00283873, No Iterations 1
GAMG:  Solving for p, Initial residual = 0.0161143, Final residual = 0.000592937, No Iterations 2
GAMG:  Solving for p, Initial residual = 0.0120927, Final residual = 0.000855496, No Iterations 1
GAMG:  Solving for p, Initial residual = 0.00672471, Final residual = 0.00062856, No Iterations 1
time step continuity errors : sum local = 2.40237, global = 0.448011, cumulative = -2.20034
ExecutionTime = 0.86 s  ClockTime = 1 s

Time = 12

smoothSolver:  Solving for Ux, Initial residual = 0.0572102, Final residual = 2.68483e-05, No Iterations 2
smoothSolver:  Solving for Uy, Initial residual = 0.0569317, Final residual = 2.72336e-05, No Iterations 2
smoothSolver:  Solving for Uz, Initial residual = 0.189872, Final residual = 7.18655e-05, No Iterations 2
GAMG:  Solving for p, Initial residual = 0.0681754, Final residual = 0.0029765, No Iterations 2
GAMG:  Solving for p, Initial residual = 0.117843, Final residual = 0.00760407, No Iterations 1
GAMG:  Solving for p, Initial residual = 0.0536802, Final residual = 0.00476018, No Iterations 1
GAMG:  Solving for p, Initial residual = 0.0443936, Final residual = 0.00386927, No Iterations 1
GAMG:  Solving for p, Initial residual = 0.0342536, Final residual = 0.00311036, No Iterations 1
time step continuity errors : sum local = 2.65575, global = -0.700508, cumulative = -2.90085
ExecutionTime = 0.93 s  ClockTime = 1 s

Time = 13

smoothSolver:  Solving for Ux, Initial residual = 0.051108, Final residual = 2.55908e-05, No Iterations 2
smoothSolver:  Solving for Uy, Initial residual = 0.0515083, Final residual = 2.60364e-05, No Iterations 2
smoothSolver:  Solving for Uz, Initial residual = 0.165442, Final residual = 6.38751e-05, No Iterations 2
GAMG:  Solving for p, Initial residual = 0.0749184, Final residual = 0.00484313, No Iterations 2
GAMG:  Solving for p, Initial residual = 0.132972, Final residual = 0.00866477, No Iterations 1
GAMG:  Solving for p, Initial residual = 0.0524143, Final residual = 0.00482713, No Iterations 1
GAMG:  Solving for p, Initial residual = 0.0307641, Final residual = 0.00267422, No Iterations 1
GAMG:  Solving for p, Initial residual = 0.0183571, Final residual = 0.00167506, No Iterations 1
time step continuity errors : sum local = 4.45439, global = -1.2131, cumulative = -4.11395
ExecutionTime = 1 s  ClockTime = 1 s

Time = 14

smoothSolver:  Solving for Ux, Initial residual = 0.0403911, Final residual = 2.14151e-05, No Iterations 2
smoothSolver:  Solving for Uy, Initial residual = 0.041657, Final residual = 2.22383e-05, No Iterations 2
smoothSolver:  Solving for Uz, Initial residual = 0.108851, Final residual = 4.66304e-05, No Iterations 2
GAMG:  Solving for p, Initial residual = 0.0991598, Final residual = 0.00781488, No Iterations 2
GAMG:  Solving for p, Initial residual = 0.0922478, Final residual = 0.00608168, No Iterations 1
GAMG:  Solving for p, Initial residual = 0.0368316, Final residual = 0.00341487, No Iterations 1
GAMG:  Solving for p, Initial residual = 0.0230436, Final residual = 0.00200327, No Iterations 1
GAMG:  Solving for p, Initial residual = 0.0142099, Final residual = 0.00129854, No Iterations 1
time step continuity errors : sum local = 5.31248, global = -1.45841, cumulative = -5.57236
ExecutionTime = 1.06 s  ClockTime = 1 s

Time = 15

smoothSolver:  Solving for Ux, Initial residual = 0.0327596, Final residual = 1.82477e-05, No Iterations 2
smoothSolver:  Solving for Uy, Initial residual = 0.034105, Final residual = 1.89657e-05, No Iterations 2
smoothSolver:  Solving for Uz, Initial residual = 0.0581117, Final residual = 3.16021e-05, No Iterations 2
GAMG:  Solving for p, Initial residual = 0.199511, Final residual = 0.0160918, No Iterations 2
GAMG:  Solving for p, Initial residual = 0.072717, Final residual = 0.00485586, No Iterations 1
GAMG:  Solving for p, Initial residual = 0.0293842, Final residual = 0.00272868, No Iterations 1
GAMG:  Solving for p, Initial residual = 0.0190922, Final residual = 0.00166757, No Iterations 1
GAMG:  Solving for p, Initial residual = 0.0120828, Final residual = 0.0011074, No Iterations 1
time step continuity errors : sum local = 5.02437, global = -1.40132, cumulative = -6.97368
ExecutionTime = 1.12 s  ClockTime = 1 s

Time = 16

smoothSolver:  Solving for Ux, Initial residual = 0.0311903, Final residual = 1.72798e-05, No Iterations 2
smoothSolver:  Solving for Uy, Initial residual = 0.031686, Final residual = 1.76559e-05, No Iterations 2
smoothSolver:  Solving for Uz, Initial residual = 0.0594352, Final residual = 3.04799e-05, No Iterations 2
GAMG:  Solving for p, Initial residual = 0.166691, Final residual = 0.0111692, No Iterations 2
GAMG:  Solving for p, Initial residual = 0.0568594, Final residual = 0.00387603, No Iterations 1
GAMG:  Solving for p, Initial residual = 0.0237055, Final residual = 0.00222449, No Iterations 1
GAMG:  Solving for p, Initial residual = 0.0160554, Final residual = 0.00141775, No Iterations 1
GAMG:  Solving for p, Initial residual = 0.010424, Final residual = 0.000964407, No Iterations 1
time step continuity errors : sum local = 3.9289, global = -1.09356, cumulative = -8.06723
ExecutionTime = 1.18 s  ClockTime = 1 s

Time = 17

smoothSolver:  Solving for Ux, Initial residual = 0.0317002, Final residual = 1.66722e-05, No Iterations 2
smoothSolver:  Solving for Uy, Initial residual = 0.0314647, Final residual = 1.65473e-05, No Iterations 2
smoothSolver:  Solving for Uz, Initial residual = 0.0860239, Final residual = 3.55644e-05, No Iterations 2
GAMG:  Solving for p, Initial residual = 0.0914659, Final residual = 0.004321, No Iterations 2
GAMG:  Solving for p, Initial residual = 0.0419102, Final residual = 0.00294378, No Iterations 1
GAMG:  Solving for p, Initial residual = 0.0187365, Final residual = 0.00184542, No Iterations 1
GAMG:  Solving for p, Initial residual = 0.013364, Final residual = 0.00120997, No Iterations 1
GAMG:  Solving for p, Initial residual = 0.00889569, Final residual = 0.000845371, No Iterations 1
time step continuity errors : sum local = 2.51773, global = -0.67555, cumulative = -8.74278
ExecutionTime = 1.24 s  ClockTime = 1 s

Time = 18

smoothSolver:  Solving for Ux, Initial residual = 0.0304839, Final residual = 1.58421e-05, No Iterations 2
smoothSolver:  Solving for Uy, Initial residual = 0.0300315, Final residual = 1.53949e-05, No Iterations 2
smoothSolver:  Solving for Uz, Initial residual = 0.0969401, Final residual = 3.76446e-05, No Iterations 2
GAMG:  Solving for p, Initial residual = 0.0725543, Final residual = 0.00235087, No Iterations 2
GAMG:  Solving for p, Initial residual = 0.0405324, Final residual = 0.00289606, No Iterations 1
GAMG:  Solving for p, Initial residual = 0.0181455, Final residual = 0.00173348, No Iterations 1
GAMG:  Solving for p, Initial residual = 0.0114638, Final residual = 0.00113657, No Iterations 1
GAMG:  Solving for p, Initial residual = 0.00767613, Final residual = 0.000294755, No Iterations 2
time step continuity errors : sum local = 0.505113, global = -0.00934317, cumulative = -8.75213
ExecutionTime = 1.32 s  ClockTime = 1 s

Time = 19

smoothSolver:  Solving for Ux, Initial residual = 0.0271345, Final residual = 1.43052e-05, No Iterations 2
smoothSolver:  Solving for Uy, Initial residual = 0.0269335, Final residual = 1.37583e-05, No Iterations 2
smoothSolver:  Solving for Uz, Initial residual = 0.0891612, Final residual = 3.43677e-05, No Iterations 2
GAMG:  Solving for p, Initial residual = 0.0680615, Final residual = 0.00315248, No Iterations 2
GAMG:  Solving for p, Initial residual = 0.126494, Final residual = 0.00830672, No Iterations 1
GAMG:  Solving for p, Initial residual = 0.0553191, Final residual = 0.00486677, No Iterations 1
GAMG:  Solving for p, Initial residual = 0.0428319, Final residual = 0.00379592, No Iterations 1
GAMG:  Solving for p, Initial residual = 0.0323815, Final residual = 0.00294337, No Iterations 1
time step continuity errors : sum local = 1.37239, global = 0.374786, cumulative = -8.37734
ExecutionTime = 1.38 s  ClockTime = 1 s

Time = 20

smoothSolver:  Solving for Ux, Initial residual = 0.022842, Final residual = 1.24591e-05, No Iterations 2
smoothSolver:  Solving for Uy, Initial residual = 0.0231553, Final residual = 1.22395e-05, No Iterations 2
smoothSolver:  Solving for Uz, Initial residual = 0.0693758, Final residual = 2.78585e-05, No Iterations 2
GAMG:  Solving for p, Initial residual = 0.0720726, Final residual = 0.00453138, No Iterations 2
GAMG:  Solving for p, Initial residual = 0.129618, Final residual = 0.00844333, No Iterations 1
GAMG:  Solving for p, Initial residual = 0.0499428, Final residual = 0.0045681, No Iterations 1
GAMG:  Solving for p, Initial residual = 0.029434, Final residual = 0.00255784, No Iterations 1
GAMG:  Solving for p, Initial residual = 0.0176457, Final residual = 0.00161031, No Iterations 1
time step continuity errors : sum local = 2.02034, global = 0.561483, cumulative = -7.81586
ExecutionTime = 1.43 s  ClockTime = 1 s

Time = 21

smoothSolver:  Solving for Ux, Initial residual = 0.0194961, Final residual = 1.07927e-05, No Iterations 2
smoothSolver:  Solving for Uy, Initial residual = 0.0203772, Final residual = 1.1007e-05, No Iterations 2
smoothSolver:  Solving for Uz, Initial residual = 0.0455714, Final residual = 2.03733e-05, No Iterations 2
GAMG:  Solving for p, Initial residual = 0.0896786, Final residual = 0.00656081, No Iterations 2
GAMG:  Solving for p, Initial residual = 0.090849, Final residual = 0.00599854, No Iterations 1
GAMG:  Solving for p, Initial residual = 0.0358148, Final residual = 0.00335142, No Iterations 1
GAMG:  Solving for p, Initial residual = 0.0226749, Final residual = 0.00198376, No Iterations 1
GAMG:  Solving for p, Initial residual = 0.0139896, Final residual = 0.0012878, No Iterations 1
time step continuity errors : sum local = 2.32581, global = 0.652794, cumulative = -7.16306
ExecutionTime = 1.5 s  ClockTime = 1 s

Time = 22

smoothSolver:  Solving for Ux, Initial residual = 0.0180678, Final residual = 9.82823e-06, No Iterations 2
smoothSolver:  Solving for Uy, Initial residual = 0.0191777, Final residual = 1.03025e-05, No Iterations 2
smoothSolver:  Solving for Uz, Initial residual = 0.028542, Final residual = 1.51618e-05, No Iterations 2
GAMG:  Solving for p, Initial residual = 0.147976, Final residual = 0.0106487, No Iterations 2
GAMG:  Solving for p, Initial residual = 0.0717095, Final residual = 0.00483193, No Iterations 1
GAMG:  Solving for p, Initial residual = 0.0290259, Final residual = 0.00275152, No Iterations 1
GAMG:  Solving for p, Initial residual = 0.0192255, Final residual = 0.001693, No Iterations 1
GAMG:  Solving for p, Initial residual = 0.0121475, Final residual = 0.00112472, No Iterations 1
time step continuity errors : sum local = 2.18904, global = 0.619856, cumulative = -6.54321
ExecutionTime = 1.56 s  ClockTime = 1 s

Time = 23

smoothSolver:  Solving for Ux, Initial residual = 0.018065, Final residual = 9.48773e-06, No Iterations 2
smoothSolver:  Solving for Uy, Initial residual = 0.0191215, Final residual = 1.00087e-05, No Iterations 2
smoothSolver:  Solving for Uz, Initial residual = 0.0261064, Final residual = 1.37219e-05, No Iterations 2
GAMG:  Solving for p, Initial residual = 0.176059, Final residual = 0.0103924, No Iterations 2
GAMG:  Solving for p, Initial residual = 0.0573955, Final residual = 0.00399212, No Iterations 1
GAMG:  Solving for p, Initial residual = 0.0241334, Final residual = 0.00235235, No Iterations 1
GAMG:  Solving for p, Initial residual = 0.0167213, Final residual = 0.00149492, No Iterations 1
GAMG:  Solving for p, Initial residual = 0.0108003, Final residual = 0.0010147, No Iterations 1
time step continuity errors : sum local = 1.73953, global = 0.485767, cumulative = -6.05744
ExecutionTime = 1.62 s  ClockTime = 1 s

Time = 24

smoothSolver:  Solving for Ux, Initial residual = 0.0183155, Final residual = 9.27002e-06, No Iterations 2
smoothSolver:  Solving for Uy, Initial residual = 0.0192925, Final residual = 9.80454e-06, No Iterations 2
smoothSolver:  Solving for Uz, Initial residual = 0.0318682, Final residual = 1.4403e-05, No Iterations 2
GAMG:  Solving for p, Initial residual = 0.106734, Final residual = 0.00459684, No Iterations 2
GAMG:  Solving for p, Initial residual = 0.0488105, Final residual = 0.00351143, No Iterations 1
GAMG:  Solving for p, Initial residual = 0.0214757, Final residual = 0.000921106, No Iterations 2
GAMG:  Solving for p, Initial residual = 0.0173018, Final residual = 0.00120381, No Iterations 1
GAMG:  Solving for p, Initial residual = 0.00887164, Final residual = 0.000834369, No Iterations 1
time step continuity errors : sum local = 1.04935, global = 0.285142, cumulative = -5.7723
ExecutionTime = 1.68 s  ClockTime = 2 s

Time = 25

smoothSolver:  Solving for Ux, Initial residual = 0.0180832, Final residual = 8.89507e-06, No Iterations 2
smoothSolver:  Solving for Uy, Initial residual = 0.0190166, Final residual = 9.42777e-06, No Iterations 2
smoothSolver:  Solving for Uz, Initial residual = 0.0353736, Final residual = 1.46808e-05, No Iterations 2
GAMG:  Solving for p, Initial residual = 0.0880848, Final residual = 0.00316535, No Iterations 2
GAMG:  Solving for p, Initial residual = 0.0549476, Final residual = 0.00398854, No Iterations 1
GAMG:  Solving for p, Initial residual = 0.0240116, Final residual = 0.00232862, No Iterations 1
GAMG:  Solving for p, Initial residual = 0.0151304, Final residual = 0.000573992, No Iterations 2
GAMG:  Solving for p, Initial residual = 0.0116776, Final residual = 0.000866369, No Iterations 1
time step continuity errors : sum local = 0.611244, global = 0.0453997, cumulative = -5.7269
ExecutionTime = 1.75 s  ClockTime = 2 s

Time = 26

smoothSolver:  Solving for Ux, Initial residual = 0.017275, Final residual = 8.40144e-06, No Iterations 2
smoothSolver:  Solving for Uy, Initial residual = 0.0182637, Final residual = 8.98397e-06, No Iterations 2
smoothSolver:  Solving for Uz, Initial residual = 0.0335707, Final residual = 1.39024e-05, No Iterations 2
GAMG:  Solving for p, Initial residual = 0.0852479, Final residual = 0.00379687, No Iterations 2
GAMG:  Solving for p, Initial residual = 0.147841, Final residual = 0.00987367, No Iterations 1
GAMG:  Solving for p, Initial residual = 0.05629, Final residual = 0.00502107, No Iterations 1
GAMG:  Solving for p, Initial residual = 0.0312359, Final residual = 0.00283101, No Iterations 1
GAMG:  Solving for p, Initial residual = 0.0188836, Final residual = 0.00174476, No Iterations 1
time step continuity errors : sum local = 0.696468, global = -0.188785, cumulative = -5.91568
ExecutionTime = 1.81 s  ClockTime = 2 s

Time = 27

smoothSolver:  Solving for Ux, Initial residual = 0.0161982, Final residual = 7.95266e-06, No Iterations 2
smoothSolver:  Solving for Uy, Initial residual = 0.017286, Final residual = 8.51796e-06, No Iterations 2
smoothSolver:  Solving for Uz, Initial residual = 0.0279578, Final residual = 1.20814e-05, No Iterations 2
GAMG:  Solving for p, Initial residual = 0.0938256, Final residual = 0.00512842, No Iterations 2
GAMG:  Solving for p, Initial residual = 0.087428, Final residual = 0.00566597, No Iterations 1
GAMG:  Solving for p, Initial residual = 0.0337213, Final residual = 0.00306169, No Iterations 1
GAMG:  Solving for p, Initial residual = 0.0208337, Final residual = 0.00180438, No Iterations 1
GAMG:  Solving for p, Initial residual = 0.0128619, Final residual = 0.0011668, No Iterations 1
time step continuity errors : sum local = 0.919752, global = -0.261787, cumulative = -6.17747
ExecutionTime = 1.87 s  ClockTime = 2 s

Time = 28

smoothSolver:  Solving for Ux, Initial residual = 0.0152299, Final residual = 7.52663e-06, No Iterations 2
smoothSolver:  Solving for Uy, Initial residual = 0.0163087, Final residual = 8.07419e-06, No Iterations 2
smoothSolver:  Solving for Uz, Initial residual = 0.0218979, Final residual = 1.01634e-05, No Iterations 2
GAMG:  Solving for p, Initial residual = 0.122158, Final residual = 0.00722793, No Iterations 2
GAMG:  Solving for p, Initial residual = 0.0678073, Final residual = 0.00440605, No Iterations 1
GAMG:  Solving for p, Initial residual = 0.0268972, Final residual = 0.00250289, No Iterations 1
GAMG:  Solving for p, Initial residual = 0.0176036, Final residual = 0.00152528, No Iterations 1
GAMG:  Solving for p, Initial residual = 0.0110615, Final residual = 0.00101188, No Iterations 1
time step continuity errors : sum local = 1.03555, global = -0.296895, cumulative = -6.47436
ExecutionTime = 1.94 s  ClockTime = 2 s

Time = 29

smoothSolver:  Solving for Ux, Initial residual = 0.014539, Final residual = 7.2588e-06, No Iterations 2
smoothSolver:  Solving for Uy, Initial residual = 0.0155201, Final residual = 7.71147e-06, No Iterations 2
smoothSolver:  Solving for Uz, Initial residual = 0.0191476, Final residual = 9.22757e-06, No Iterations 2
GAMG:  Solving for p, Initial residual = 0.190962, Final residual = 0.010766, No Iterations 2
GAMG:  Solving for p, Initial residual = 0.0550292, Final residual = 0.00364019, No Iterations 1
GAMG:  Solving for p, Initial residual = 0.0225011, Final residual = 0.00215404, No Iterations 1
GAMG:  Solving for p, Initial residual = 0.0154612, Final residual = 0.00135105, No Iterations 1
GAMG:  Solving for p, Initial residual = 0.00987728, Final residual = 0.000914869, No Iterations 1
time step continuity errors : sum local = 0.985822, global = -0.280591, cumulative = -6.75495
ExecutionTime = 2 s  ClockTime = 2 s

Time = 30

smoothSolver:  Solving for Ux, Initial residual = 0.0140518, Final residual = 7.01736e-06, No Iterations 2
smoothSolver:  Solving for Uy, Initial residual = 0.0148843, Final residual = 7.45461e-06, No Iterations 2
smoothSolver:  Solving for Uz, Initial residual = 0.0200648, Final residual = 9.19497e-06, No Iterations 2
GAMG:  Solving for p, Initial residual = 0.111874, Final residual = 0.00541905, No Iterations 2
GAMG:  Solving for p, Initial residual = 0.0446648, Final residual = 0.00305024, No Iterations 1
GAMG:  Solving for p, Initial residual = 0.0190569, Final residual = 0.00189825, No Iterations 1
GAMG:  Solving for p, Initial residual = 0.0136841, Final residual = 0.00121232, No Iterations 1
GAMG:  Solving for p, Initial residual = 0.00887604, Final residual = 0.000835765, No Iterations 1
time step continuity errors : sum local = 0.811615, global = -0.22627, cumulative = -6.98122
ExecutionTime = 2.06 s  ClockTime = 2 s

Time = 31

smoothSolver:  Solving for Ux, Initial residual = 0.0135599, Final residual = 6.83092e-06, No Iterations 2
smoothSolver:  Solving for Uy, Initial residual = 0.0142805, Final residual = 7.24947e-06, No Iterations 2
smoothSolver:  Solving for Uz, Initial residual = 0.0218883, Final residual = 9.44673e-06, No Iterations 2
GAMG:  Solving for p, Initial residual = 0.0846952, Final residual = 0.00310422, No Iterations 2
GAMG:  Solving for p, Initial residual = 0.0388568, Final residual = 0.00276321, No Iterations 1
GAMG:  Solving for p, Initial residual = 0.0169238, Final residual = 0.00169066, No Iterations 1
GAMG:  Solving for p, Initial residual = 0.011684, Final residual = 0.00109339, No Iterations 1
GAMG:  Solving for p, Initial residual = 0.00781207, Final residual = 0.000759354, No Iterations 1
time step continuity errors : sum local = 0.577834, global = -0.163414, cumulative = -7.14464
ExecutionTime = 2.12 s  ClockTime = 2 s

Time = 32

smoothSolver:  Solving for Ux, Initial residual = 0.0129891, Final residual = 6.57629e-06, No Iterations 2
smoothSolver:  Solving for Uy, Initial residual = 0.0136972, Final residual = 7.00509e-06, No Iterations 2
smoothSolver:  Solving for Uz, Initial residual = 0.0224239, Final residual = 9.45162e-06, No Iterations 2
GAMG:  Solving for p, Initial residual = 0.0746756, Final residual = 0.00245634, No Iterations 2
GAMG:  Solving for p, Initial residual = 0.0401557, Final residual = 0.00290997, No Iterations 1
GAMG:  Solving for p, Initial residual = 0.0172994, Final residual = 0.00167855, No Iterations 1
GAMG:  Solving for p, Initial residual = 0.0108054, Final residual = 0.000422429, No Iterations 2
GAMG:  Solving for p, Initial residual = 0.00841222, Final residual = 0.000616538, No Iterations 1
time step continuity errors : sum local = 0.336523, global = -0.0308382, cumulative = -7.17548
ExecutionTime = 2.19 s  ClockTime = 2 s

Time = 33

smoothSolver:  Solving for Ux, Initial residual = 0.0124396, Final residual = 6.32294e-06, No Iterations 2
smoothSolver:  Solving for Uy, Initial residual = 0.0131996, Final residual = 6.81007e-06, No Iterations 2
smoothSolver:  Solving for Uz, Initial residual = 0.021268, Final residual = 8.9987e-06, No Iterations 2
GAMG:  Solving for p, Initial residual = 0.0717083, Final residual = 0.00680731, No Iterations 1
GAMG:  Solving for p, Initial residual = 0.0373525, Final residual = 0.00180741, No Iterations 2
GAMG:  Solving for p, Initial residual = 0.0427738, Final residual = 0.00275474, No Iterations 1
GAMG:  Solving for p, Initial residual = 0.0189094, Final residual = 0.00169372, No Iterations 1
GAMG:  Solving for p, Initial residual = 0.0125809, Final residual = 0.00117267, No Iterations 1
time step continuity errors : sum local = 0.383783, global = 0.0942431, cumulative = -7.08123
ExecutionTime = 2.25 s  ClockTime = 2 s

Time = 34

smoothSolver:  Solving for Ux, Initial residual = 0.0120392, Final residual = 6.10871e-06, No Iterations 2
smoothSolver:  Solving for Uy, Initial residual = 0.0128497, Final residual = 6.59169e-06, No Iterations 2
smoothSolver:  Solving for Uz, Initial residual = 0.0188697, Final residual = 8.27453e-06, No Iterations 2
GAMG:  Solving for p, Initial residual = 0.0742489, Final residual = 0.00715972, No Iterations 1
GAMG:  Solving for p, Initial residual = 0.0503662, Final residual = 0.00259241, No Iterations 2
GAMG:  Solving for p, Initial residual = 0.050957, Final residual = 0.00315963, No Iterations 1
GAMG:  Solving for p, Initial residual = 0.0216993, Final residual = 0.00195133, No Iterations 1
GAMG:  Solving for p, Initial residual = 0.0140705, Final residual = 0.00124241, No Iterations 1
time step continuity errors : sum local = 0.463713, global = 0.137242, cumulative = -6.94399
ExecutionTime = 2.32 s  ClockTime = 2 s

Time = 35

smoothSolver:  Solving for Ux, Initial residual = 0.0118014, Final residual = 5.9081e-06, No Iterations 2
smoothSolver:  Solving for Uy, Initial residual = 0.0126204, Final residual = 6.36906e-06, No Iterations 2
smoothSolver:  Solving for Uz, Initial residual = 0.0162583, Final residual = 7.46833e-06, No Iterations 2
GAMG:  Solving for p, Initial residual = 0.0830942, Final residual = 0.00801279, No Iterations 1
GAMG:  Solving for p, Initial residual = 0.0627044, Final residual = 0.00329534, No Iterations 2
GAMG:  Solving for p, Initial residual = 0.0425381, Final residual = 0.00266043, No Iterations 1
GAMG:  Solving for p, Initial residual = 0.0184672, Final residual = 0.0016979, No Iterations 1
GAMG:  Solving for p, Initial residual = 0.0125307, Final residual = 0.00110338, No Iterations 1
time step continuity errors : sum local = 0.515481, global = 0.162543, cumulative = -6.78145
ExecutionTime = 2.38 s  ClockTime = 2 s

Time = 36

smoothSolver:  Solving for Ux, Initial residual = 0.0116903, Final residual = 5.73761e-06, No Iterations 2
smoothSolver:  Solving for Uy, Initial residual = 0.0124693, Final residual = 6.19073e-06, No Iterations 2
smoothSolver:  Solving for Uz, Initial residual = 0.0144572, Final residual = 6.85073e-06, No Iterations 2
GAMG:  Solving for p, Initial residual = 0.0991179, Final residual = 0.00927366, No Iterations 1
GAMG:  Solving for p, Initial residual = 0.0622886, Final residual = 0.00327912, No Iterations 2
GAMG:  Solving for p, Initial residual = 0.0372852, Final residual = 0.00240515, No Iterations 1
GAMG:  Solving for p, Initial residual = 0.0166648, Final residual = 0.00156378, No Iterations 1
GAMG:  Solving for p, Initial residual = 0.0116457, Final residual = 0.00103863, No Iterations 1
time step continuity errors : sum local = 0.501835, global = 0.164039, cumulative = -6.61741
ExecutionTime = 2.45 s  ClockTime = 2 s

Time = 37

smoothSolver:  Solving for Ux, Initial residual = 0.011577, Final residual = 5.64693e-06, No Iterations 2
smoothSolver:  Solving for Uy, Initial residual = 0.0123348, Final residual = 6.0494e-06, No Iterations 2
smoothSolver:  Solving for Uz, Initial residual = 0.0136953, Final residual = 6.48435e-06, No Iterations 2
GAMG:  Solving for p, Initial residual = 0.12079, Final residual = 0.011175, No Iterations 1
GAMG:  Solving for p, Initial residual = 0.0523507, Final residual = 0.00258576, No Iterations 2
GAMG:  Solving for p, Initial residual = 0.0326139, Final residual = 0.00221019, No Iterations 1
GAMG:  Solving for p, Initial residual = 0.015177, Final residual = 0.00146788, No Iterations 1
GAMG:  Solving for p, Initial residual = 0.0108924, Final residual = 0.00099442, No Iterations 1
time step continuity errors : sum local = 0.434949, global = 0.145131, cumulative = -6.47228
ExecutionTime = 2.51 s  ClockTime = 2 s

Time = 38

smoothSolver:  Solving for Ux, Initial residual = 0.011419, Final residual = 5.50864e-06, No Iterations 2
smoothSolver:  Solving for Uy, Initial residual = 0.0121645, Final residual = 5.88432e-06, No Iterations 2
smoothSolver:  Solving for Uz, Initial residual = 0.0135642, Final residual = 6.32326e-06, No Iterations 2
GAMG:  Solving for p, Initial residual = 0.130222, Final residual = 0.0121011, No Iterations 1
GAMG:  Solving for p, Initial residual = 0.0468537, Final residual = 0.00191506, No Iterations 2
GAMG:  Solving for p, Initial residual = 0.0290701, Final residual = 0.00207851, No Iterations 1
GAMG:  Solving for p, Initial residual = 0.0141329, Final residual = 0.00139531, No Iterations 1
GAMG:  Solving for p, Initial residual = 0.00999117, Final residual = 0.000956562, No Iterations 1
time step continuity errors : sum local = 0.337692, global = 0.107249, cumulative = -6.36503
ExecutionTime = 2.57 s  ClockTime = 2 s

Time = 39

smoothSolver:  Solving for Ux, Initial residual = 0.0112044, Final residual = 5.34716e-06, No Iterations 2
smoothSolver:  Solving for Uy, Initial residual = 0.0119206, Final residual = 5.73235e-06, No Iterations 2
smoothSolver:  Solving for Uz, Initial residual = 0.013507, Final residual = 6.16072e-06, No Iterations 2
GAMG:  Solving for p, Initial residual = 0.118827, Final residual = 0.0105973, No Iterations 1
GAMG:  Solving for p, Initial residual = 0.0446278, Final residual = 0.00175148, No Iterations 2
GAMG:  Solving for p, Initial residual = 0.0297951, Final residual = 0.00218718, No Iterations 1
GAMG:  Solving for p, Initial residual = 0.014543, Final residual = 0.00145216, No Iterations 1
GAMG:  Solving for p, Initial residual = 0.00947924, Final residual = 0.000386593, No Iterations 2
time step continuity errors : sum local = 0.104529, global = 0.00294841, cumulative = -6.36208
ExecutionTime = 2.63 s  ClockTime = 3 s

Time = 40

smoothSolver:  Solving for Ux, Initial residual = 0.0109535, Final residual = 5.17829e-06, No Iterations 2
smoothSolver:  Solving for Uy, Initial residual = 0.0116431, Final residual = 5.57788e-06, No Iterations 2
smoothSolver:  Solving for Uz, Initial residual = 0.0133511, Final residual = 6.0274e-06, No Iterations 2
GAMG:  Solving for p, Initial residual = 0.116535, Final residual = 0.00960574, No Iterations 1
GAMG:  Solving for p, Initial residual = 0.0452226, Final residual = 0.00198332, No Iterations 2
GAMG:  Solving for p, Initial residual = 0.0259131, Final residual = 0.00175412, No Iterations 1
GAMG:  Solving for p, Initial residual = 0.0116562, Final residual = 0.00108371, No Iterations 1
GAMG:  Solving for p, Initial residual = 0.00720298, Final residual = 0.000712622, No Iterations 1
time step continuity errors : sum local = 0.231314, global = -0.0464903, cumulative = -6.40857
ExecutionTime = 2.7 s  ClockTime = 3 s

Time = 41

smoothSolver:  Solving for Ux, Initial residual = 0.0107163, Final residual = 5.06011e-06, No Iterations 2
smoothSolver:  Solving for Uy, Initial residual = 0.0113819, Final residual = 5.4571e-06, No Iterations 2
smoothSolver:  Solving for Uz, Initial residual = 0.0131251, Final residual = 5.94457e-06, No Iterations 2
GAMG:  Solving for p, Initial residual = 0.120822, Final residual = 0.00941848, No Iterations 1
GAMG:  Solving for p, Initial residual = 0.0391705, Final residual = 0.00190982, No Iterations 2
GAMG:  Solving for p, Initial residual = 0.0235557, Final residual = 0.00152448, No Iterations 1
GAMG:  Solving for p, Initial residual = 0.0103729, Final residual = 0.000941479, No Iterations 1
GAMG:  Solving for p, Initial residual = 0.00668842, Final residual = 0.000627787, No Iterations 1
time step continuity errors : sum local = 0.250111, global = -0.0703939, cumulative = -6.47897
ExecutionTime = 2.76 s  ClockTime = 3 s

Time = 42

smoothSolver:  Solving for Ux, Initial residual = 0.0104908, Final residual = 4.96227e-06, No Iterations 2
smoothSolver:  Solving for Uy, Initial residual = 0.0111402, Final residual = 5.33847e-06, No Iterations 2
smoothSolver:  Solving for Uz, Initial residual = 0.0129396, Final residual = 5.88666e-06, No Iterations 2
GAMG:  Solving for p, Initial residual = 0.109317, Final residual = 0.00845433, No Iterations 1
GAMG:  Solving for p, Initial residual = 0.0336944, Final residual = 0.00166528, No Iterations 2
GAMG:  Solving for p, Initial residual = 0.0218572, Final residual = 0.00140584, No Iterations 1
GAMG:  Solving for p, Initial residual = 0.00971884, Final residual = 0.000898118, No Iterations 1
GAMG:  Solving for p, Initial residual = 0.00658105, Final residual = 0.000609605, No Iterations 1
time step continuity errors : sum local = 0.271473, global = -0.0835453, cumulative = -6.56251
ExecutionTime = 2.82 s  ClockTime = 3 s

Time = 43

smoothSolver:  Solving for Ux, Initial residual = 0.01029, Final residual = 4.86878e-06, No Iterations 2
smoothSolver:  Solving for Uy, Initial residual = 0.0109137, Final residual = 5.26841e-06, No Iterations 2
smoothSolver:  Solving for Uz, Initial residual = 0.0128081, Final residual = 5.80805e-06, No Iterations 2
GAMG:  Solving for p, Initial residual = 0.0937825, Final residual = 0.00735906, No Iterations 1
GAMG:  Solving for p, Initial residual = 0.0299624, Final residual = 0.00140439, No Iterations 2
GAMG:  Solving for p, Initial residual = 0.0196565, Final residual = 0.00128725, No Iterations 1
GAMG:  Solving for p, Initial residual = 0.00896409, Final residual = 0.000847234, No Iterations 1
GAMG:  Solving for p, Initial residual = 0.00627976, Final residual = 0.000582917, No Iterations 1
time step continuity errors : sum local = 0.267359, global = -0.0861185, cumulative = -6.64863
ExecutionTime = 2.89 s  ClockTime = 3 s

Time = 44

smoothSolver:  Solving for Ux, Initial residual = 0.0101174, Final residual = 4.79438e-06, No Iterations 2
smoothSolver:  Solving for Uy, Initial residual = 0.010697, Final residual = 5.16429e-06, No Iterations 2
smoothSolver:  Solving for Uz, Initial residual = 0.0127007, Final residual = 5.73343e-06, No Iterations 2
GAMG:  Solving for p, Initial residual = 0.0830643, Final residual = 0.00658815, No Iterations 1
GAMG:  Solving for p, Initial residual = 0.0272863, Final residual = 0.00269951, No Iterations 1
GAMG:  Solving for p, Initial residual = 0.0145179, Final residual = 0.000665505, No Iterations 2
GAMG:  Solving for p, Initial residual = 0.0114583, Final residual = 0.000776849, No Iterations 1
GAMG:  Solving for p, Initial residual = 0.00568045, Final residual = 0.000545651, No Iterations 1
time step continuity errors : sum local = 0.242719, global = -0.0699175, cumulative = -6.71855
ExecutionTime = 2.94 s  ClockTime = 3 s

Time = 45

smoothSolver:  Solving for Ux, Initial residual = 0.00994859, Final residual = 4.71711e-06, No Iterations 2
smoothSolver:  Solving for Uy, Initial residual = 0.0104838, Final residual = 5.06523e-06, No Iterations 2
smoothSolver:  Solving for Uz, Initial residual = 0.0125595, Final residual = 5.63176e-06, No Iterations 2
GAMG:  Solving for p, Initial residual = 0.0764822, Final residual = 0.00601003, No Iterations 1
GAMG:  Solving for p, Initial residual = 0.0256653, Final residual = 0.00249781, No Iterations 1
GAMG:  Solving for p, Initial residual = 0.0129048, Final residual = 0.00054004, No Iterations 2
GAMG:  Solving for p, Initial residual = 0.00965963, Final residual = 0.000691865, No Iterations 1
GAMG:  Solving for p, Initial residual = 0.00500567, Final residual = 0.000492012, No Iterations 1
time step continuity errors : sum local = 0.203966, global = -0.0588558, cumulative = -6.7774
ExecutionTime = 3.01 s  ClockTime = 3 s

Time = 46

smoothSolver:  Solving for Ux, Initial residual = 0.00979112, Final residual = 4.66647e-06, No Iterations 2
smoothSolver:  Solving for Uy, Initial residual = 0.0102935, Final residual = 4.94628e-06, No Iterations 2
smoothSolver:  Solving for Uz, Initial residual = 0.0123494, Final residual = 5.5113e-06, No Iterations 2
GAMG:  Solving for p, Initial residual = 0.0725975, Final residual = 0.00547709, No Iterations 1
GAMG:  Solving for p, Initial residual = 0.0245999, Final residual = 0.00233567, No Iterations 1
GAMG:  Solving for p, Initial residual = 0.0120455, Final residual = 0.000475565, No Iterations 2
GAMG:  Solving for p, Initial residual = 0.00858739, Final residual = 0.000632676, No Iterations 1
GAMG:  Solving for p, Initial residual = 0.00453473, Final residual = 0.000452332, No Iterations 1
time step continuity errors : sum local = 0.173614, global = -0.0303035, cumulative = -6.80771
ExecutionTime = 3.07 s  ClockTime = 3 s

Time = 47

smoothSolver:  Solving for Ux, Initial residual = 0.009646, Final residual = 4.61531e-06, No Iterations 2
smoothSolver:  Solving for Uy, Initial residual = 0.0101337, Final residual = 4.83786e-06, No Iterations 2
smoothSolver:  Solving for Uz, Initial residual = 0.0120738, Final residual = 5.34663e-06, No Iterations 2
GAMG:  Solving for p, Initial residual = 0.0710894, Final residual = 0.00507186, No Iterations 1
GAMG:  Solving for p, Initial residual = 0.0241195, Final residual = 0.00215087, No Iterations 1
GAMG:  Solving for p, Initial residual = 0.0118459, Final residual = 0.00118374, No Iterations 1
GAMG:  Solving for p, Initial residual = 0.00736644, Final residual = 0.000323345, No Iterations 2
GAMG:  Solving for p, Initial residual = 0.00615555, Final residual = 0.000419556, No Iterations 1
time step continuity errors : sum local = 0.147431, global = 0.0150771, cumulative = -6.79263
ExecutionTime = 3.13 s  ClockTime = 3 s

Time = 48

smoothSolver:  Solving for Ux, Initial residual = 0.009536, Final residual = 4.53368e-06, No Iterations 2
smoothSolver:  Solving for Uy, Initial residual = 0.0100119, Final residual = 4.77429e-06, No Iterations 2
smoothSolver:  Solving for Uz, Initial residual = 0.0117608, Final residual = 5.20444e-06, No Iterations 2
GAMG:  Solving for p, Initial residual = 0.0708919, Final residual = 0.0048351, No Iterations 1
GAMG:  Solving for p, Initial residual = 0.02413, Final residual = 0.00207373, No Iterations 1
GAMG:  Solving for p, Initial residual = 0.0123178, Final residual = 0.0012022, No Iterations 1
GAMG:  Solving for p, Initial residual = 0.00816814, Final residual = 0.000805685, No Iterations 1
GAMG:  Solving for p, Initial residual = 0.00572113, Final residual = 0.00055876, No Iterations 1
time step continuity errors : sum local = 0.183212, global = 0.0475466, cumulative = -6.74508
ExecutionTime = 3.2 s  ClockTime = 3 s

Time = 49

smoothSolver:  Solving for Ux, Initial residual = 0.00944643, Final residual = 4.46348e-06, No Iterations 2
smoothSolver:  Solving for Uy, Initial residual = 0.00991455, Final residual = 4.70879e-06, No Iterations 2
smoothSolver:  Solving for Uz, Initial residual = 0.0114454, Final residual = 5.03285e-06, No Iterations 2
GAMG:  Solving for p, Initial residual = 0.0716625, Final residual = 0.00483115, No Iterations 1
GAMG:  Solving for p, Initial residual = 0.0244714, Final residual = 0.00212792, No Iterations 1
GAMG:  Solving for p, Initial residual = 0.0131963, Final residual = 0.00128582, No Iterations 1
GAMG:  Solving for p, Initial residual = 0.00918094, Final residual = 0.000891555, No Iterations 1
GAMG:  Solving for p, Initial residual = 0.00665996, Final residual = 0.000637937, No Iterations 1
time step continuity errors : sum local = 0.195802, global = 0.0570092, cumulative = -6.68807
ExecutionTime = 3.25 s  ClockTime = 3 s

Time = 50

smoothSolver:  Solving for Ux, Initial residual = 0.00937183, Final residual = 4.41393e-06, No Iterations 2
smoothSolver:  Solving for Uy, Initial residual = 0.00981856, Final residual = 4.65137e-06, No Iterations 2
smoothSolver:  Solving for Uz, Initial residual = 0.0111519, Final residual = 4.91772e-06, No Iterations 2
GAMG:  Solving for p, Initial residual = 0.0731982, Final residual = 0.00497747, No Iterations 1
GAMG:  Solving for p, Initial residual = 0.0249175, Final residual = 0.00220151, No Iterations 1
GAMG:  Solving for p, Initial residual = 0.0135068, Final residual = 0.00132934, No Iterations 1
GAMG:  Solving for p, Initial residual = 0.00944817, Final residual = 0.000932747, No Iterations 1
GAMG:  Solving for p, Initial residual = 0.00697031, Final residual = 0.000677219, No Iterations 1
time step continuity errors : sum local = 0.201563, global = 0.0612708, cumulative = -6.6268
ExecutionTime = 3.31 s  ClockTime = 3 s

Time = 51

smoothSolver:  Solving for Ux, Initial residual = 0.00928813, Final residual = 4.36114e-06, No Iterations 2
smoothSolver:  Solving for Uy, Initial residual = 0.00972972, Final residual = 4.61061e-06, No Iterations 2
smoothSolver:  Solving for Uz, Initial residual = 0.0109109, Final residual = 4.81174e-06, No Iterations 2
GAMG:  Solving for p, Initial residual = 0.0749605, Final residual = 0.00515738, No Iterations 1
GAMG:  Solving for p, Initial residual = 0.0252283, Final residual = 0.00226482, No Iterations 1
GAMG:  Solving for p, Initial residual = 0.0132208, Final residual = 0.000590381, No Iterations 2
GAMG:  Solving for p, Initial residual = 0.0118265, Final residual = 0.000796127, No Iterations 1
GAMG:  Solving for p, Initial residual = 0.00604867, Final residual = 0.00057887, No Iterations 1
time step continuity errors : sum local = 0.169834, global = 0.0523405, cumulative = -6.57446
ExecutionTime = 3.38 s  ClockTime = 3 s

Time = 52

smoothSolver:  Solving for Ux, Initial residual = 0.0092016, Final residual = 4.31082e-06, No Iterations 2
smoothSolver:  Solving for Uy, Initial residual = 0.00963314, Final residual = 4.55281e-06, No Iterations 2
smoothSolver:  Solving for Uz, Initial residual = 0.0107252, Final residual = 4.71825e-06, No Iterations 2
GAMG:  Solving for p, Initial residual = 0.0764969, Final residual = 0.00525724, No Iterations 1
GAMG:  Solving for p, Initial residual = 0.0252155, Final residual = 0.00228854, No Iterations 1
GAMG:  Solving for p, Initial residual = 0.0125464, Final residual = 0.000526005, No Iterations 2
GAMG:  Solving for p, Initial residual = 0.0100931, Final residual = 0.000707092, No Iterations 1
GAMG:  Solving for p, Initial residual = 0.00529786, Final residual = 0.000517629, No Iterations 1
time step continuity errors : sum local = 0.156853, global = 0.0476423, cumulative = -6.52682
ExecutionTime = 3.44 s  ClockTime = 3 s

Time = 53

smoothSolver:  Solving for Ux, Initial residual = 0.00910233, Final residual = 4.24457e-06, No Iterations 2
smoothSolver:  Solving for Uy, Initial residual = 0.00952332, Final residual = 4.48993e-06, No Iterations 2
smoothSolver:  Solving for Uz, Initial residual = 0.0105895, Final residual = 4.63126e-06, No Iterations 2
GAMG:  Solving for p, Initial residual = 0.0770372, Final residual = 0.00521007, No Iterations 1
GAMG:  Solving for p, Initial residual = 0.0249252, Final residual = 0.00225213, No Iterations 1
GAMG:  Solving for p, Initial residual = 0.0118857, Final residual = 0.000469768, No Iterations 2
GAMG:  Solving for p, Initial residual = 0.00852995, Final residual = 0.000620999, No Iterations 1
GAMG:  Solving for p, Initial residual = 0.00456134, Final residual = 0.000185365, No Iterations 2
time step continuity errors : sum local = 0.058577, global = 0.00885213, cumulative = -6.51797
ExecutionTime = 3.5 s  ClockTime = 3 s

Time = 54

smoothSolver:  Solving for Ux, Initial residual = 0.00899059, Final residual = 4.17822e-06, No Iterations 2
smoothSolver:  Solving for Uy, Initial residual = 0.0094129, Final residual = 4.44342e-06, No Iterations 2
smoothSolver:  Solving for Uz, Initial residual = 0.010473, Final residual = 4.56947e-06, No Iterations 2
GAMG:  Solving for p, Initial residual = 0.0767608, Final residual = 0.00504246, No Iterations 1
GAMG:  Solving for p, Initial residual = 0.0244018, Final residual = 0.00213524, No Iterations 1
GAMG:  Solving for p, Initial residual = 0.011258, Final residual = 0.000429094, No Iterations 2
GAMG:  Solving for p, Initial residual = 0.00747724, Final residual = 0.000547399, No Iterations 1
GAMG:  Solving for p, Initial residual = 0.00400914, Final residual = 0.000150254, No Iterations 2
time step continuity errors : sum local = 0.0493157, global = 0.000663449, cumulative = -6.5173
ExecutionTime = 3.57 s  ClockTime = 3 s

Time = 55

smoothSolver:  Solving for Ux, Initial residual = 0.00888368, Final residual = 4.11478e-06, No Iterations 2
smoothSolver:  Solving for Uy, Initial residual = 0.00930844, Final residual = 4.37783e-06, No Iterations 2
smoothSolver:  Solving for Uz, Initial residual = 0.0103517, Final residual = 4.49941e-06, No Iterations 2
GAMG:  Solving for p, Initial residual = 0.0753928, Final residual = 0.00483482, No Iterations 1
GAMG:  Solving for p, Initial residual = 0.0237223, Final residual = 0.00199218, No Iterations 1
GAMG:  Solving for p, Initial residual = 0.0106875, Final residual = 0.00104597, No Iterations 1
GAMG:  Solving for p, Initial residual = 0.00605336, Final residual = 0.000261269, No Iterations 2
GAMG:  Solving for p, Initial residual = 0.00460285, Final residual = 0.000321658, No Iterations 1
time step continuity errors : sum local = 0.109632, global = -0.0117214, cumulative = -6.52903
ExecutionTime = 3.63 s  ClockTime = 4 s

Time = 56

smoothSolver:  Solving for Ux, Initial residual = 0.00879261, Final residual = 4.08266e-06, No Iterations 2
smoothSolver:  Solving for Uy, Initial residual = 0.00921254, Final residual = 4.32918e-06, No Iterations 2
smoothSolver:  Solving for Uz, Initial residual = 0.0102245, Final residual = 4.43203e-06, No Iterations 2
GAMG:  Solving for p, Initial residual = 0.0735024, Final residual = 0.00467585, No Iterations 1
GAMG:  Solving for p, Initial residual = 0.0230287, Final residual = 0.00189213, No Iterations 1
GAMG:  Solving for p, Initial residual = 0.0102414, Final residual = 0.00097079, No Iterations 1
GAMG:  Solving for p, Initial residual = 0.00579789, Final residual = 0.000265446, No Iterations 2
GAMG:  Solving for p, Initial residual = 0.0045574, Final residual = 0.000305469, No Iterations 1
time step continuity errors : sum local = 0.107633, global = -0.0215191, cumulative = -6.55054
ExecutionTime = 3.69 s  ClockTime = 4 s

Time = 57

smoothSolver:  Solving for Ux, Initial residual = 0.00869338, Final residual = 4.03624e-06, No Iterations 2
smoothSolver:  Solving for Uy, Initial residual = 0.00911592, Final residual = 4.25735e-06, No Iterations 2
smoothSolver:  Solving for Uz, Initial residual = 0.0100899, Final residual = 4.35719e-06, No Iterations 2
GAMG:  Solving for p, Initial residual = 0.0712362, Final residual = 0.00454633, No Iterations 1
GAMG:  Solving for p, Initial residual = 0.0224173, Final residual = 0.00183297, No Iterations 1
GAMG:  Solving for p, Initial residual = 0.00994865, Final residual = 0.000940236, No Iterations 1
GAMG:  Solving for p, Initial residual = 0.00570148, Final residual = 0.00026394, No Iterations 2
GAMG:  Solving for p, Initial residual = 0.00460521, Final residual = 0.000305399, No Iterations 1
time step continuity errors : sum local = 0.109883, global = -0.02701, cumulative = -6.57755
ExecutionTime = 3.76 s  ClockTime = 4 s

Time = 58

smoothSolver:  Solving for Ux, Initial residual = 0.00860766, Final residual = 3.98896e-06, No Iterations 2
smoothSolver:  Solving for Uy, Initial residual = 0.00903231, Final residual = 4.18399e-06, No Iterations 2
smoothSolver:  Solving for Uz, Initial residual = 0.00995027, Final residual = 4.2549e-06, No Iterations 2
GAMG:  Solving for p, Initial residual = 0.0693851, Final residual = 0.00444783, No Iterations 1
GAMG:  Solving for p, Initial residual = 0.0219621, Final residual = 0.00180061, No Iterations 1
GAMG:  Solving for p, Initial residual = 0.00976734, Final residual = 0.000935027, No Iterations 1
GAMG:  Solving for p, Initial residual = 0.00560736, Final residual = 0.000252252, No Iterations 2
GAMG:  Solving for p, Initial residual = 0.0044873, Final residual = 0.000302521, No Iterations 1
time step continuity errors : sum local = 0.109839, global = -0.0293468, cumulative = -6.6069
ExecutionTime = 3.83 s  ClockTime = 4 s

Time = 59

smoothSolver:  Solving for Ux, Initial residual = 0.00851591, Final residual = 3.96194e-06, No Iterations 2
smoothSolver:  Solving for Uy, Initial residual = 0.00894598, Final residual = 4.11535e-06, No Iterations 2
smoothSolver:  Solving for Uz, Initial residual = 0.00979086, Final residual = 4.18983e-06, No Iterations 2
GAMG:  Solving for p, Initial residual = 0.0675902, Final residual = 0.00434519, No Iterations 1
GAMG:  Solving for p, Initial residual = 0.0214807, Final residual = 0.00176447, No Iterations 1
GAMG:  Solving for p, Initial residual = 0.00958157, Final residual = 0.000926444, No Iterations 1
GAMG:  Solving for p, Initial residual = 0.00545364, Final residual = 0.000230921, No Iterations 2
GAMG:  Solving for p, Initial residual = 0.00420464, Final residual = 0.000289209, No Iterations 1
time step continuity errors : sum local = 0.104918, global = -0.0281231, cumulative = -6.63502
ExecutionTime = 3.88 s  ClockTime = 4 s

Time = 60

smoothSolver:  Solving for Ux, Initial residual = 0.00843891, Final residual = 3.93584e-06, No Iterations 2
smoothSolver:  Solving for Uy, Initial residual = 0.00886317, Final residual = 4.07589e-06, No Iterations 2
smoothSolver:  Solving for Uz, Initial residual = 0.00963598, Final residual = 4.10862e-06, No Iterations 2
GAMG:  Solving for p, Initial residual = 0.0661108, Final residual = 0.00423399, No Iterations 1
GAMG:  Solving for p, Initial residual = 0.0210317, Final residual = 0.00172499, No Iterations 1
GAMG:  Solving for p, Initial residual = 0.00940388, Final residual = 0.000908436, No Iterations 1
GAMG:  Solving for p, Initial residual = 0.00528892, Final residual = 0.000205351, No Iterations 2
GAMG:  Solving for p, Initial residual = 0.00386341, Final residual = 0.000271905, No Iterations 1
time step continuity errors : sum local = 0.0979646, global = -0.0233367, cumulative = -6.65836
ExecutionTime = 3.95 s  ClockTime = 4 s

Time = 61

smoothSolver:  Solving for Ux, Initial residual = 0.00836381, Final residual = 3.88385e-06, No Iterations 2
smoothSolver:  Solving for Uy, Initial residual = 0.00877441, Final residual = 4.01032e-06, No Iterations 2
smoothSolver:  Solving for Uz, Initial residual = 0.0094735, Final residual = 4.03809e-06, No Iterations 2
GAMG:  Solving for p, Initial residual = 0.0649761, Final residual = 0.00414107, No Iterations 1
GAMG:  Solving for p, Initial residual = 0.0206722, Final residual = 0.00168644, No Iterations 1
GAMG:  Solving for p, Initial residual = 0.00924158, Final residual = 0.000882529, No Iterations 1
GAMG:  Solving for p, Initial residual = 0.0051533, Final residual = 0.000189563, No Iterations 2
GAMG:  Solving for p, Initial residual = 0.00358406, Final residual = 0.000257453, No Iterations 1
time step continuity errors : sum local = 0.0919461, global = -0.0137153, cumulative = -6.67208
ExecutionTime = 4.01 s  ClockTime = 4 s

Time = 62

smoothSolver:  Solving for Ux, Initial residual = 0.00829477, Final residual = 3.84396e-06, No Iterations 2
smoothSolver:  Solving for Uy, Initial residual = 0.00869795, Final residual = 3.9843e-06, No Iterations 2
smoothSolver:  Solving for Uz, Initial residual = 0.00932287, Final residual = 3.98756e-06, No Iterations 2
GAMG:  Solving for p, Initial residual = 0.0641385, Final residual = 0.00407332, No Iterations 1
GAMG:  Solving for p, Initial residual = 0.0204083, Final residual = 0.00165281, No Iterations 1
GAMG:  Solving for p, Initial residual = 0.00913038, Final residual = 0.000855899, No Iterations 1
GAMG:  Solving for p, Initial residual = 0.00506181, Final residual = 0.000180284, No Iterations 2
GAMG:  Solving for p, Initial residual = 0.0034818, Final residual = 0.000247394, No Iterations 1
time step continuity errors : sum local = 0.0875586, global = 0.00105806, cumulative = -6.67102
ExecutionTime = 4.07 s  ClockTime = 4 s

Time = 63

smoothSolver:  Solving for Ux, Initial residual = 0.00821587, Final residual = 3.81325e-06, No Iterations 2
smoothSolver:  Solving for Uy, Initial residual = 0.00861741, Final residual = 3.94559e-06, No Iterations 2
smoothSolver:  Solving for Uz, Initial residual = 0.00917628, Final residual = 3.9369e-06, No Iterations 2
GAMG:  Solving for p, Initial residual = 0.0636213, Final residual = 0.0040445, No Iterations 1
GAMG:  Solving for p, Initial residual = 0.0202346, Final residual = 0.00163558, No Iterations 1
GAMG:  Solving for p, Initial residual = 0.00912265, Final residual = 0.000845936, No Iterations 1
GAMG:  Solving for p, Initial residual = 0.00507844, Final residual = 0.000184724, No Iterations 2
GAMG:  Solving for p, Initial residual = 0.00360485, Final residual = 0.000248267, No Iterations 1
time step continuity errors : sum local = 0.0869945, global = 0.0123529, cumulative = -6.65867
ExecutionTime = 4.14 s  ClockTime = 4 s

Time = 64

smoothSolver:  Solving for Ux, Initial residual = 0.00814754, Final residual = 3.79303e-06, No Iterations 2
smoothSolver:  Solving for Uy, Initial residual = 0.00854851, Final residual = 3.93671e-06, No Iterations 2
smoothSolver:  Solving for Uz, Initial residual = 0.00902865, Final residual = 3.89369e-06, No Iterations 2
GAMG:  Solving for p, Initial residual = 0.0631811, Final residual = 0.00402856, No Iterations 1
GAMG:  Solving for p, Initial residual = 0.0201764, Final residual = 0.00163548, No Iterations 1
GAMG:  Solving for p, Initial residual = 0.00916777, Final residual = 0.000851271, No Iterations 1
GAMG:  Solving for p, Initial residual = 0.00516416, Final residual = 0.000200766, No Iterations 2
GAMG:  Solving for p, Initial residual = 0.00386659, Final residual = 0.000261492, No Iterations 1
time step continuity errors : sum local = 0.0910102, global = 0.0184017, cumulative = -6.64026
ExecutionTime = 4.21 s  ClockTime = 4 s

Time = 65

smoothSolver:  Solving for Ux, Initial residual = 0.00807299, Final residual = 3.77746e-06, No Iterations 2
smoothSolver:  Solving for Uy, Initial residual = 0.00847005, Final residual = 3.90577e-06, No Iterations 2
smoothSolver:  Solving for Uz, Initial residual = 0.00887984, Final residual = 3.83943e-06, No Iterations 2
GAMG:  Solving for p, Initial residual = 0.0630058, Final residual = 0.00403902, No Iterations 1
GAMG:  Solving for p, Initial residual = 0.0201798, Final residual = 0.00165037, No Iterations 1
GAMG:  Solving for p, Initial residual = 0.00922631, Final residual = 0.000870186, No Iterations 1
GAMG:  Solving for p, Initial residual = 0.00525079, Final residual = 0.000211551, No Iterations 2
GAMG:  Solving for p, Initial residual = 0.00406098, Final residual = 0.000275336, No Iterations 1
time step continuity errors : sum local = 0.0954872, global = 0.02131, cumulative = -6.61895
ExecutionTime = 4.27 s  ClockTime = 4 s

Time = 66

smoothSolver:  Solving for Ux, Initial residual = 0.00800434, Final residual = 3.76048e-06, No Iterations 2
smoothSolver:  Solving for Uy, Initial residual = 0.00838913, Final residual = 3.87066e-06, No Iterations 2
smoothSolver:  Solving for Uz, Initial residual = 0.00874523, Final residual = 3.77069e-06, No Iterations 2
GAMG:  Solving for p, Initial residual = 0.0629375, Final residual = 0.00405032, No Iterations 1
GAMG:  Solving for p, Initial residual = 0.0202487, Final residual = 0.00167372, No Iterations 1
GAMG:  Solving for p, Initial residual = 0.00929556, Final residual = 0.000886529, No Iterations 1
GAMG:  Solving for p, Initial residual = 0.00531141, Final residual = 0.000215768, No Iterations 2
GAMG:  Solving for p, Initial residual = 0.00413132, Final residual = 0.000284794, No Iterations 1
time step continuity errors : sum local = 0.0988727, global = 0.0217979, cumulative = -6.59716
ExecutionTime = 4.33 s  ClockTime = 4 s

Time = 67

smoothSolver:  Solving for Ux, Initial residual = 0.00793581, Final residual = 3.71305e-06, No Iterations 2
smoothSolver:  Solving for Uy, Initial residual = 0.00830523, Final residual = 3.82339e-06, No Iterations 2
smoothSolver:  Solving for Uz, Initial residual = 0.00862483, Final residual = 3.73275e-06, No Iterations 2
GAMG:  Solving for p, Initial residual = 0.0630341, Final residual = 0.00405752, No Iterations 1
GAMG:  Solving for p, Initial residual = 0.0203582, Final residual = 0.00169216, No Iterations 1
GAMG:  Solving for p, Initial residual = 0.00936019, Final residual = 0.000900416, No Iterations 1
GAMG:  Solving for p, Initial residual = 0.0053327, Final residual = 0.00021556, No Iterations 2
GAMG:  Solving for p, Initial residual = 0.00408678, Final residual = 0.000288822, No Iterations 1
time step continuity errors : sum local = 0.100523, global = 0.0202008, cumulative = -6.57696
ExecutionTime = 4.4 s  ClockTime = 4 s

Time = 68

smoothSolver:  Solving for Ux, Initial residual = 0.00785199, Final residual = 3.6634e-06, No Iterations 2
smoothSolver:  Solving for Uy, Initial residual = 0.00822556, Final residual = 3.78027e-06, No Iterations 2
smoothSolver:  Solving for Uz, Initial residual = 0.00849913, Final residual = 3.68472e-06, No Iterations 2
GAMG:  Solving for p, Initial residual = 0.0627124, Final residual = 0.00402452, No Iterations 1
GAMG:  Solving for p, Initial residual = 0.0203431, Final residual = 0.00169096, No Iterations 1
GAMG:  Solving for p, Initial residual = 0.00934825, Final residual = 0.0008995, No Iterations 1
GAMG:  Solving for p, Initial residual = 0.00529695, Final residual = 0.000211431, No Iterations 2
GAMG:  Solving for p, Initial residual = 0.00394783, Final residual = 0.000285988, No Iterations 1
time step continuity errors : sum local = 0.100313, global = 0.0162847, cumulative = -6.56067
ExecutionTime = 4.46 s  ClockTime = 4 s

Time = 69

smoothSolver:  Solving for Ux, Initial residual = 0.00776967, Final residual = 3.62152e-06, No Iterations 2
smoothSolver:  Solving for Uy, Initial residual = 0.00815221, Final residual = 3.77842e-06, No Iterations 2
smoothSolver:  Solving for Uz, Initial residual = 0.00837535, Final residual = 3.66236e-06, No Iterations 2
GAMG:  Solving for p, Initial residual = 0.0624834, Final residual = 0.00399901, No Iterations 1
GAMG:  Solving for p, Initial residual = 0.020282, Final residual = 0.00167801, No Iterations 1
GAMG:  Solving for p, Initial residual = 0.00928586, Final residual = 0.000891826, No Iterations 1
GAMG:  Solving for p, Initial residual = 0.00523188, Final residual = 0.000206285, No Iterations 2
GAMG:  Solving for p, Initial residual = 0.00377824, Final residual = 0.000279383, No Iterations 1
time step continuity errors : sum local = 0.0988549, global = 0.0104038, cumulative = -6.55027
ExecutionTime = 4.52 s  ClockTime = 4 s

Time = 70

smoothSolver:  Solving for Ux, Initial residual = 0.00770305, Final residual = 3.59454e-06, No Iterations 2
smoothSolver:  Solving for Uy, Initial residual = 0.00807643, Final residual = 3.75544e-06, No Iterations 2
smoothSolver:  Solving for Uz, Initial residual = 0.00828092, Final residual = 3.61197e-06, No Iterations 2
GAMG:  Solving for p, Initial residual = 0.0621426, Final residual = 0.00393982, No Iterations 1
GAMG:  Solving for p, Initial residual = 0.0201099, Final residual = 0.00166176, No Iterations 1
GAMG:  Solving for p, Initial residual = 0.00916717, Final residual = 0.000880486, No Iterations 1
GAMG:  Solving for p, Initial residual = 0.00515199, Final residual = 0.000201238, No Iterations 2
GAMG:  Solving for p, Initial residual = 0.00365842, Final residual = 0.000272639, No Iterations 1
time step continuity errors : sum local = 0.0973563, global = 0.00471753, cumulative = -6.54555
ExecutionTime = 4.59 s  ClockTime = 4 s

Time = 71

smoothSolver:  Solving for Ux, Initial residual = 0.00761488, Final residual = 3.59127e-06, No Iterations 2
smoothSolver:  Solving for Uy, Initial residual = 0.00800558, Final residual = 3.74667e-06, No Iterations 2
smoothSolver:  Solving for Uz, Initial residual = 0.00817454, Final residual = 3.56535e-06, No Iterations 2
GAMG:  Solving for p, Initial residual = 0.0615128, Final residual = 0.00395672, No Iterations 1
GAMG:  Solving for p, Initial residual = 0.0199889, Final residual = 0.00164735, No Iterations 1
GAMG:  Solving for p, Initial residual = 0.00919596, Final residual = 0.000870838, No Iterations 1
GAMG:  Solving for p, Initial residual = 0.00519249, Final residual = 0.000196598, No Iterations 2
GAMG:  Solving for p, Initial residual = 0.00369968, Final residual = 0.00027259, No Iterations 1
time step continuity errors : sum local = 0.0981159, global = 3.5433e-05, cumulative = -6.54551
ExecutionTime = 4.64 s  ClockTime = 5 s

Time = 72

smoothSolver:  Solving for Ux, Initial residual = 0.00755366, Final residual = 3.55963e-06, No Iterations 2
smoothSolver:  Solving for Uy, Initial residual = 0.00792885, Final residual = 3.76105e-06, No Iterations 2
smoothSolver:  Solving for Uz, Initial residual = 0.00804119, Final residual = 3.49147e-06, No Iterations 2
GAMG:  Solving for p, Initial residual = 0.0610626, Final residual = 0.00395656, No Iterations 1
GAMG:  Solving for p, Initial residual = 0.0200448, Final residual = 0.00162904, No Iterations 1
GAMG:  Solving for p, Initial residual = 0.00932369, Final residual = 0.000868304, No Iterations 1
GAMG:  Solving for p, Initial residual = 0.00525239, Final residual = 0.00019345, No Iterations 2
GAMG:  Solving for p, Initial residual = 0.00372909, Final residual = 0.00027287, No Iterations 1
time step continuity errors : sum local = 0.0988247, global = -0.00375423, cumulative = -6.54927
ExecutionTime = 4.7 s  ClockTime = 5 s

Time = 73

smoothSolver:  Solving for Ux, Initial residual = 0.0074844, Final residual = 3.51838e-06, No Iterations 2
smoothSolver:  Solving for Uy, Initial residual = 0.00785262, Final residual = 3.73391e-06, No Iterations 2
smoothSolver:  Solving for Uz, Initial residual = 0.00790508, Final residual = 3.43991e-06, No Iterations 2
GAMG:  Solving for p, Initial residual = 0.0604269, Final residual = 0.00393388, No Iterations 1
GAMG:  Solving for p, Initial residual = 0.0198906, Final residual = 0.00159251, No Iterations 1
GAMG:  Solving for p, Initial residual = 0.00925865, Final residual = 0.000846138, No Iterations 1
GAMG:  Solving for p, Initial residual = 0.00517716, Final residual = 0.00051414, No Iterations 1
GAMG:  Solving for p, Initial residual = 0.00327383, Final residual = 0.000129528, No Iterations 2
time step continuity errors : sum local = 0.0472312, global = -0.00656885, cumulative = -6.55584
ExecutionTime = 4.77 s  ClockTime = 5 s

Time = 74

smoothSolver:  Solving for Ux, Initial residual = 0.00743734, Final residual = 3.47711e-06, No Iterations 2
smoothSolver:  Solving for Uy, Initial residual = 0.00777261, Final residual = 3.73505e-06, No Iterations 2
smoothSolver:  Solving for Uz, Initial residual = 0.00778912, Final residual = 3.38851e-06, No Iterations 2
GAMG:  Solving for p, Initial residual = 0.0597316, Final residual = 0.00384815, No Iterations 1
GAMG:  Solving for p, Initial residual = 0.0197, Final residual = 0.00154145, No Iterations 1
GAMG:  Solving for p, Initial residual = 0.00905732, Final residual = 0.000817146, No Iterations 1
GAMG:  Solving for p, Initial residual = 0.0050098, Final residual = 0.000492515, No Iterations 1
GAMG:  Solving for p, Initial residual = 0.00313745, Final residual = 0.000121341, No Iterations 2
time step continuity errors : sum local = 0.0445158, global = -0.00636251, cumulative = -6.5622
ExecutionTime = 4.83 s  ClockTime = 5 s

Time = 75

smoothSolver:  Solving for Ux, Initial residual = 0.0073716, Final residual = 3.44691e-06, No Iterations 2
smoothSolver:  Solving for Uy, Initial residual = 0.00768887, Final residual = 3.71002e-06, No Iterations 2
smoothSolver:  Solving for Uz, Initial residual = 0.00768914, Final residual = 3.34264e-06, No Iterations 2
GAMG:  Solving for p, Initial residual = 0.0593164, Final residual = 0.00374931, No Iterations 1
GAMG:  Solving for p, Initial residual = 0.0194657, Final residual = 0.00150087, No Iterations 1
GAMG:  Solving for p, Initial residual = 0.00882162, Final residual = 0.000784708, No Iterations 1
GAMG:  Solving for p, Initial residual = 0.00483651, Final residual = 0.000468119, No Iterations 1
GAMG:  Solving for p, Initial residual = 0.00300458, Final residual = 0.000112131, No Iterations 2
time step continuity errors : sum local = 0.0414553, global = -0.00590637, cumulative = -6.56811
ExecutionTime = 4.9 s  ClockTime = 5 s

Time = 76

smoothSolver:  Solving for Ux, Initial residual = 0.00728476, Final residual = 3.42492e-06, No Iterations 2
smoothSolver:  Solving for Uy, Initial residual = 0.00759741, Final residual = 3.67647e-06, No Iterations 2
smoothSolver:  Solving for Uz, Initial residual = 0.00758362, Final residual = 3.30997e-06, No Iterations 2
GAMG:  Solving for p, Initial residual = 0.0586261, Final residual = 0.00367046, No Iterations 1
GAMG:  Solving for p, Initial residual = 0.0192272, Final residual = 0.00148628, No Iterations 1
GAMG:  Solving for p, Initial residual = 0.00866773, Final residual = 0.000765618, No Iterations 1
GAMG:  Solving for p, Initial residual = 0.00470527, Final residual = 0.000453547, No Iterations 1
GAMG:  Solving for p, Initial residual = 0.0029151, Final residual = 0.000105247, No Iterations 2
time step continuity errors : sum local = 0.0390173, global = -0.00494548, cumulative = -6.57305
ExecutionTime = 4.95 s  ClockTime = 5 s

Time = 77

smoothSolver:  Solving for Ux, Initial residual = 0.00720077, Final residual = 3.4196e-06, No Iterations 2
smoothSolver:  Solving for Uy, Initial residual = 0.00751592, Final residual = 3.66794e-06, No Iterations 2
smoothSolver:  Solving for Uz, Initial residual = 0.00747556, Final residual = 3.26396e-06, No Iterations 2
GAMG:  Solving for p, Initial residual = 0.058515, Final residual = 0.00362199, No Iterations 1
GAMG:  Solving for p, Initial residual = 0.0191572, Final residual = 0.00150097, No Iterations 1
GAMG:  Solving for p, Initial residual = 0.00857044, Final residual = 0.000754883, No Iterations 1
GAMG:  Solving for p, Initial residual = 0.00464938, Final residual = 0.00045192, No Iterations 1
GAMG:  Solving for p, Initial residual = 0.002881, Final residual = 0.000103127, No Iterations 2
time step continuity errors : sum local = 0.038295, global = -0.00239022, cumulative = -6.57544
ExecutionTime = 5.01 s  ClockTime = 5 s

Time = 78

smoothSolver:  Solving for Ux, Initial residual = 0.00712906, Final residual = 3.40735e-06, No Iterations 2
smoothSolver:  Solving for Uy, Initial residual = 0.0074377, Final residual = 3.67763e-06, No Iterations 2
smoothSolver:  Solving for Uz, Initial residual = 0.00737148, Final residual = 3.23063e-06, No Iterations 2
GAMG:  Solving for p, Initial residual = 0.0582113, Final residual = 0.00360099, No Iterations 1
GAMG:  Solving for p, Initial residual = 0.0189785, Final residual = 0.00150101, No Iterations 1
GAMG:  Solving for p, Initial residual = 0.00856855, Final residual = 0.000749499, No Iterations 1
GAMG:  Solving for p, Initial residual = 0.00467582, Final residual = 0.000454428, No Iterations 1
GAMG:  Solving for p, Initial residual = 0.00293672, Final residual = 0.000106175, No Iterations 2
time step continuity errors : sum local = 0.0395293, global = 0.000396157, cumulative = -6.57505
ExecutionTime = 5.07 s  ClockTime = 5 s

Time = 79

smoothSolver:  Solving for Ux, Initial residual = 0.00705486, Final residual = 3.37308e-06, No Iterations 2
smoothSolver:  Solving for Uy, Initial residual = 0.00735441, Final residual = 3.67829e-06, No Iterations 2
smoothSolver:  Solving for Uz, Initial residual = 0.0072677, Final residual = 3.21137e-06, No Iterations 2
GAMG:  Solving for p, Initial residual = 0.0578437, Final residual = 0.00362109, No Iterations 1
GAMG:  Solving for p, Initial residual = 0.0188216, Final residual = 0.00149938, No Iterations 1
GAMG:  Solving for p, Initial residual = 0.00859369, Final residual = 0.000745992, No Iterations 1
GAMG:  Solving for p, Initial residual = 0.00476615, Final residual = 0.000459064, No Iterations 1
GAMG:  Solving for p, Initial residual = 0.00300264, Final residual = 0.000110336, No Iterations 2
time step continuity errors : sum local = 0.0410739, global = 0.00291998, cumulative = -6.57213
ExecutionTime = 5.14 s  ClockTime = 5 s

Time = 80

smoothSolver:  Solving for Ux, Initial residual = 0.0069734, Final residual = 3.32851e-06, No Iterations 2
smoothSolver:  Solving for Uy, Initial residual = 0.00726584, Final residual = 3.66305e-06, No Iterations 2
smoothSolver:  Solving for Uz, Initial residual = 0.00714828, Final residual = 3.18123e-06, No Iterations 2
GAMG:  Solving for p, Initial residual = 0.0571518, Final residual = 0.00364411, No Iterations 1
GAMG:  Solving for p, Initial residual = 0.0185897, Final residual = 0.00149854, No Iterations 1
GAMG:  Solving for p, Initial residual = 0.00858604, Final residual = 0.000751136, No Iterations 1
GAMG:  Solving for p, Initial residual = 0.0048452, Final residual = 0.000465716, No Iterations 1
GAMG:  Solving for p, Initial residual = 0.00305943, Final residual = 0.000114108, No Iterations 2
time step continuity errors : sum local = 0.0424987, global = 0.00478488, cumulative = -6.56734
ExecutionTime = 5.2 s  ClockTime = 5 s

Time = 81

smoothSolver:  Solving for Ux, Initial residual = 0.0069042, Final residual = 3.28154e-06, No Iterations 2
smoothSolver:  Solving for Uy, Initial residual = 0.00717229, Final residual = 3.64421e-06, No Iterations 2
smoothSolver:  Solving for Uz, Initial residual = 0.00703252, Final residual = 3.14384e-06, No Iterations 2
GAMG:  Solving for p, Initial residual = 0.0564073, Final residual = 0.00363744, No Iterations 1
GAMG:  Solving for p, Initial residual = 0.0183584, Final residual = 0.0014869, No Iterations 1
GAMG:  Solving for p, Initial residual = 0.00855645, Final residual = 0.000755331, No Iterations 1
GAMG:  Solving for p, Initial residual = 0.00488345, Final residual = 0.000470944, No Iterations 1
GAMG:  Solving for p, Initial residual = 0.00310395, Final residual = 0.000118451, No Iterations 2
time step continuity errors : sum local = 0.0441747, global = 0.00580094, cumulative = -6.56154
ExecutionTime = 5.26 s  ClockTime = 5 s

Time = 82

smoothSolver:  Solving for Ux, Initial residual = 0.00684622, Final residual = 3.2236e-06, No Iterations 2
smoothSolver:  Solving for Uy, Initial residual = 0.00709246, Final residual = 3.63286e-06, No Iterations 2
smoothSolver:  Solving for Uz, Initial residual = 0.00692263, Final residual = 3.10617e-06, No Iterations 2
GAMG:  Solving for p, Initial residual = 0.0559662, Final residual = 0.00360136, No Iterations 1
GAMG:  Solving for p, Initial residual = 0.0181346, Final residual = 0.00147657, No Iterations 1
GAMG:  Solving for p, Initial residual = 0.00852979, Final residual = 0.000755134, No Iterations 1
GAMG:  Solving for p, Initial residual = 0.00487176, Final residual = 0.000474787, No Iterations 1
GAMG:  Solving for p, Initial residual = 0.00311879, Final residual = 0.000122427, No Iterations 2
time step continuity errors : sum local = 0.0457148, global = 0.0061554, cumulative = -6.55538
ExecutionTime = 5.33 s  ClockTime = 5 s

Time = 83

smoothSolver:  Solving for Ux, Initial residual = 0.00680742, Final residual = 3.16619e-06, No Iterations 2
[...]
ExecutionTime = 129.46 s  ClockTime = 150 s

Time = 1973

smoothSolver:  Solving for Ux, Initial residual = 0.0187514, Final residual = 1.49697e-05, No Iterations 2
smoothSolver:  Solving for Uy, Initial residual = 0.0176384, Final residual = 1.2272e-05, No Iterations 2
smoothSolver:  Solving for Uz, Initial residual = 0.0156191, Final residual = 1.1463e-05, No Iterations 2
GAMG:  Solving for p, Initial residual = 0.00573447, Final residual = 0.000462857, No Iterations 1
GAMG:  Solving for p, Initial residual = 0.00211963, Final residual = 0.000199669, No Iterations 1
GAMG:  Solving for p, Initial residual = 0.000932005, Final residual = 4.45042e-05, No Iterations 2
GAMG:  Solving for p, Initial residual = 0.000609025, Final residual = 4.78652e-05, No Iterations 1
GAMG:  Solving for p, Initial residual = 0.000361741, Final residual = 1.91577e-05, No Iterations 2
time step continuity errors : sum local = 1.23828e+18, global = -2.35769e+17, cumulative = -3.04051e+18
ExecutionTime = 129.52 s  ClockTime = 150 s

Time = 1974

smoothSolver:  Solving for Ux, Initial residual = 0.0189724, Final residual = 1.43097e-05, No Iterations 2
smoothSolver:  Solving for Uy, Initial residual = 0.0177634, Final residual = 1.22214e-05, No Iterations 2
smoothSolver:  Solving for Uz, Initial residual = 0.0156634, Final residual = 1.15644e-05, No Iterations 2
GAMG:  Solving for p, Initial residual = 0.00612131, Final residual = 0.000496062, No Iterations 1
GAMG:  Solving for p, Initial residual = 0.00218976, Final residual = 0.000215637, No Iterations 1
GAMG:  Solving for p, Initial residual = 0.000938308, Final residual = 4.50831e-05, No Iterations 2
GAMG:  Solving for p, Initial residual = 0.000608856, Final residual = 4.93064e-05, No Iterations 1
GAMG:  Solving for p, Initial residual = 0.000349895, Final residual = 1.75977e-05, No Iterations 2
time step continuity errors : sum local = 1.20272e+18, global = -1.65798e+17, cumulative = -3.2063e+18
ExecutionTime = 129.58 s  ClockTime = 151 s

Time = 1975

smoothSolver:  Solving for Ux, Initial residual = 0.0200079, Final residual = 1.44793e-05, No Iterations 2
smoothSolver:  Solving for Uy, Initial residual = 0.0179427, Final residual = 1.29008e-05, No Iterations 2
smoothSolver:  Solving for Uz, Initial residual = 0.0162668, Final residual = 1.19569e-05, No Iterations 2
GAMG:  Solving for p, Initial residual = 0.00572526, Final residual = 0.000478564, No Iterations 1
GAMG:  Solving for p, Initial residual = 0.0021114, Final residual = 0.000204775, No Iterations 1
GAMG:  Solving for p, Initial residual = 0.000917675, Final residual = 4.36399e-05, No Iterations 2
GAMG:  Solving for p, Initial residual = 0.000577914, Final residual = 4.7321e-05, No Iterations 1
GAMG:  Solving for p, Initial residual = 0.000331209, Final residual = 1.67727e-05, No Iterations 2
time step continuity errors : sum local = 1.23343e+18, global = -2.01597e+16, cumulative = -3.22646e+18
ExecutionTime = 129.66 s  ClockTime = 151 s

Time = 1976

smoothSolver:  Solving for Ux, Initial residual = 0.0195169, Final residual = 1.24399e-05, No Iterations 2
smoothSolver:  Solving for Uy, Initial residual = 0.0180034, Final residual = 1.27778e-05, No Iterations 2
smoothSolver:  Solving for Uz, Initial residual = 0.0160502, Final residual = 1.12285e-05, No Iterations 2
GAMG:  Solving for p, Initial residual = 0.00535563, Final residual = 0.000460965, No Iterations 1
GAMG:  Solving for p, Initial residual = 0.00209094, Final residual = 0.000201512, No Iterations 1
GAMG:  Solving for p, Initial residual = 0.000910817, Final residual = 4.34646e-05, No Iterations 2
GAMG:  Solving for p, Initial residual = 0.000586149, Final residual = 4.76935e-05, No Iterations 1
GAMG:  Solving for p, Initial residual = 0.000335241, Final residual = 1.6846e-05, No Iterations 2
time step continuity errors : sum local = 1.33506e+18, global = 7.63577e+16, cumulative = -3.15011e+18
ExecutionTime = 129.72 s  ClockTime = 151 s

Time = 1977

smoothSolver:  Solving for Ux, Initial residual = 0.0193987, Final residual = 1.18419e-05, No Iterations 2
smoothSolver:  Solving for Uy, Initial residual = 0.0182801, Final residual = 1.32353e-05, No Iterations 2
smoothSolver:  Solving for Uz, Initial residual = 0.016163, Final residual = 1.13008e-05, No Iterations 2
GAMG:  Solving for p, Initial residual = 0.00540568, Final residual = 0.000470929, No Iterations 1
GAMG:  Solving for p, Initial residual = 0.00215809, Final residual = 0.000209775, No Iterations 1
GAMG:  Solving for p, Initial residual = 0.000964816, Final residual = 4.53027e-05, No Iterations 2
GAMG:  Solving for p, Initial residual = 0.000628279, Final residual = 5.00494e-05, No Iterations 1
GAMG:  Solving for p, Initial residual = 0.000357291, Final residual = 1.74816e-05, No Iterations 2
time step continuity errors : sum local = 1.43599e+18, global = 1.3874e+17, cumulative = -3.01137e+18
ExecutionTime = 129.78 s  ClockTime = 151 s

Time = 1978

smoothSolver:  Solving for Ux, Initial residual = 0.0194169, Final residual = 1.04767e-05, No Iterations 2
smoothSolver:  Solving for Uy, Initial residual = 0.018326, Final residual = 1.2475e-05, No Iterations 2
smoothSolver:  Solving for Uz, Initial residual = 0.0160792, Final residual = 1.08245e-05, No Iterations 2
GAMG:  Solving for p, Initial residual = 0.00574728, Final residual = 0.000484195, No Iterations 1
GAMG:  Solving for p, Initial residual = 0.00230988, Final residual = 0.000220018, No Iterations 1
GAMG:  Solving for p, Initial residual = 0.000985842, Final residual = 4.44604e-05, No Iterations 2
GAMG:  Solving for p, Initial residual = 0.000613146, Final residual = 4.9203e-05, No Iterations 1
GAMG:  Solving for p, Initial residual = 0.000343981, Final residual = 1.60796e-05, No Iterations 2
time step continuity errors : sum local = 1.26201e+18, global = 3.57959e+16, cumulative = -2.97557e+18
ExecutionTime = 129.85 s  ClockTime = 151 s

Time = 1979

smoothSolver:  Solving for Ux, Initial residual = 0.0194459, Final residual = 1.07602e-05, No Iterations 2
smoothSolver:  Solving for Uy, Initial residual = 0.0184016, Final residual = 1.2885e-05, No Iterations 2
smoothSolver:  Solving for Uz, Initial residual = 0.0159257, Final residual = 1.11811e-05, No Iterations 2
GAMG:  Solving for p, Initial residual = 0.00585936, Final residual = 0.000468475, No Iterations 1
GAMG:  Solving for p, Initial residual = 0.00234008, Final residual = 0.000214553, No Iterations 1
GAMG:  Solving for p, Initial residual = 0.00101544, Final residual = 4.49439e-05, No Iterations 2
GAMG:  Solving for p, Initial residual = 0.00063129, Final residual = 5.15106e-05, No Iterations 1
GAMG:  Solving for p, Initial residual = 0.000359879, Final residual = 1.69731e-05, No Iterations 2
time step continuity errors : sum local = 1.31766e+18, global = -6.21827e+16, cumulative = -3.03775e+18
ExecutionTime = 129.91 s  ClockTime = 151 s

Time = 1980

smoothSolver:  Solving for Ux, Initial residual = 0.0198683, Final residual = 1.14742e-05, No Iterations 2
smoothSolver:  Solving for Uy, Initial residual = 0.0184163, Final residual = 1.22412e-05, No Iterations 2
smoothSolver:  Solving for Uz, Initial residual = 0.015718, Final residual = 1.06838e-05, No Iterations 2
GAMG:  Solving for p, Initial residual = 0.00593688, Final residual = 0.000457824, No Iterations 1
GAMG:  Solving for p, Initial residual = 0.00240665, Final residual = 0.000216397, No Iterations 1
GAMG:  Solving for p, Initial residual = 0.00104921, Final residual = 4.61866e-05, No Iterations 2
GAMG:  Solving for p, Initial residual = 0.000661161, Final residual = 5.48127e-05, No Iterations 1
GAMG:  Solving for p, Initial residual = 0.000380948, Final residual = 1.86375e-05, No Iterations 2
time step continuity errors : sum local = 1.41949e+18, global = -1.7931e+17, cumulative = -3.21706e+18
ExecutionTime = 129.98 s  ClockTime = 151 s

Time = 1981

smoothSolver:  Solving for Ux, Initial residual = 0.0201028, Final residual = 1.16519e-05, No Iterations 2
smoothSolver:  Solving for Uy, Initial residual = 0.0184333, Final residual = 1.20698e-05, No Iterations 2
smoothSolver:  Solving for Uz, Initial residual = 0.0157772, Final residual = 1.11167e-05, No Iterations 2
GAMG:  Solving for p, Initial residual = 0.00593247, Final residual = 0.000466491, No Iterations 1
GAMG:  Solving for p, Initial residual = 0.00237211, Final residual = 0.0002124, No Iterations 1
GAMG:  Solving for p, Initial residual = 0.00104519, Final residual = 4.62535e-05, No Iterations 2
GAMG:  Solving for p, Initial residual = 0.000661074, Final residual = 5.43617e-05, No Iterations 1
GAMG:  Solving for p, Initial residual = 0.00038217, Final residual = 1.87484e-05, No Iterations 2
time step continuity errors : sum local = 1.42079e+18, global = -2.47579e+17, cumulative = -3.46464e+18
ExecutionTime = 130.05 s  ClockTime = 151 s

Time = 1982

smoothSolver:  Solving for Ux, Initial residual = 0.0203495, Final residual = 1.22241e-05, No Iterations 2
smoothSolver:  Solving for Uy, Initial residual = 0.0182326, Final residual = 1.14233e-05, No Iterations 2
smoothSolver:  Solving for Uz, Initial residual = 0.0159307, Final residual = 1.11079e-05, No Iterations 2
GAMG:  Solving for p, Initial residual = 0.00601614, Final residual = 0.000473986, No Iterations 1
GAMG:  Solving for p, Initial residual = 0.00242501, Final residual = 0.000213706, No Iterations 1
GAMG:  Solving for p, Initial residual = 0.00107866, Final residual = 4.76917e-05, No Iterations 2
GAMG:  Solving for p, Initial residual = 0.000688342, Final residual = 5.647e-05, No Iterations 1
GAMG:  Solving for p, Initial residual = 0.000400579, Final residual = 1.95907e-05, No Iterations 2
time step continuity errors : sum local = 1.46313e+18, global = -2.96368e+17, cumulative = -3.76101e+18
ExecutionTime = 130.11 s  ClockTime = 151 s

Time = 1983

smoothSolver:  Solving for Ux, Initial residual = 0.0202721, Final residual = 1.22548e-05, No Iterations 2
smoothSolver:  Solving for Uy, Initial residual = 0.0179524, Final residual = 1.09085e-05, No Iterations 2
smoothSolver:  Solving for Uz, Initial residual = 0.0160552, Final residual = 1.14902e-05, No Iterations 2
GAMG:  Solving for p, Initial residual = 0.00607557, Final residual = 0.000478703, No Iterations 1
GAMG:  Solving for p, Initial residual = 0.0024286, Final residual = 0.000213218, No Iterations 1
GAMG:  Solving for p, Initial residual = 0.00108448, Final residual = 4.92618e-05, No Iterations 2
GAMG:  Solving for p, Initial residual = 0.000702853, Final residual = 5.69907e-05, No Iterations 1
GAMG:  Solving for p, Initial residual = 0.000409202, Final residual = 1.9962e-05, No Iterations 2
time step continuity errors : sum local = 1.47422e+18, global = -2.88595e+17, cumulative = -4.04961e+18
ExecutionTime = 130.17 s  ClockTime = 151 s

Time = 1984

smoothSolver:  Solving for Ux, Initial residual = 0.0200684, Final residual = 1.22319e-05, No Iterations 2
smoothSolver:  Solving for Uy, Initial residual = 0.0177533, Final residual = 1.05683e-05, No Iterations 2
smoothSolver:  Solving for Uz, Initial residual = 0.0160878, Final residual = 1.12132e-05, No Iterations 2
GAMG:  Solving for p, Initial residual = 0.00621687, Final residual = 0.000481246, No Iterations 1
GAMG:  Solving for p, Initial residual = 0.00241138, Final residual = 0.00021661, No Iterations 1
GAMG:  Solving for p, Initial residual = 0.00107996, Final residual = 5.12184e-05, No Iterations 2
GAMG:  Solving for p, Initial residual = 0.000708565, Final residual = 5.88841e-05, No Iterations 1
GAMG:  Solving for p, Initial residual = 0.000410106, Final residual = 2.05301e-05, No Iterations 2
time step continuity errors : sum local = 1.51009e+18, global = -2.46837e+17, cumulative = -4.29644e+18
ExecutionTime = 130.24 s  ClockTime = 151 s

Time = 1985

smoothSolver:  Solving for Ux, Initial residual = 0.0196097, Final residual = 1.25161e-05, No Iterations 2
smoothSolver:  Solving for Uy, Initial residual = 0.0173864, Final residual = 1.02583e-05, No Iterations 2
smoothSolver:  Solving for Uz, Initial residual = 0.0160139, Final residual = 1.13497e-05, No Iterations 2
GAMG:  Solvi= 0.00235496, Fino Iterations
g for p, Iniinal resiterations 2GAMG:  Solor p, Initi688657, Fi5.72657e-05s 1
G:  Solving f.000399718, Final residual = 2.02136e-05, No I
ity errors : 56154e+18, glulative = -4ExecionTime = 130Time = 151 s

lver:  Solvnitial resid143, Final r27966e-05, Ns 2
ver:  Solviitial residu7, Final res125e-06, No
 Solving fInitial residual = 0.0159526, Final re.13071e-05, No2
p, Initial .00654936, F = 0.0004909tions 1
olving for pidual = 0.00l residual =3, No IteratGA:  Solving f= 0.0010947,ual = 5.3988GAMolving for psidual = 0.0nal residual05, No IteraGAMG:  Sng for p, Inal = 0.00041residual = 2ns 2
tep continuity 905e+18, glo4e+16, cumul0627e+18
nTime = 130Time = 151
Time = 1987
smootolving for Uesidual = 0nal residual05, No IterasmoothSolver:  Sol Initial resi6047, Final residual = 9No Iterations 2
er:  Solving for Uz, Ini= 0.0157862,ual = 1.141terations 2
nitlr0645125, Fina 0.000486248ons 1
g for p, In619, Final r.000216604, No IteratiGAMG:  Solving for p, Inial residual , Final residual = 5.48Iterations 2
 for p, Inl = 0.00070residual = 6No IterationGAMG:  Sing for p, Iual = 0.000l residual = 2.1821e-05,s 2
errors= 1.7965e+18, global =, cumulative+18
 = 130.43 s  Clo5
Time = 1988
smoover:  Solvi.0194186, Final residua-05, No IterasmoothSol  Solving fol residual =Final residue-06, No Iterations 2
Solving for residual = inal residua-05, No IterGAMG:  Solvi or p, Initia= 0.00642092dual = 0.000GAMG:  ng for p, Initial residual = 0.0024l residual = 0s 1
ing for p, Iual = 0.00108residual = 5No IterationGAMG:  Song for p, Initial residu8155, Final ations 1
g for p, Ial = 0.00041residual = 2 Iterations time s continuity e ocal = 1.890al = 2.09093tive = -4.05648e+18
 = 130.5 s  51 s
Time = 89
smoothSolver:  Solving for Uesidual = 0.01esidual = 1.4Iterations 2smSolver:  Sol Initial residual = 0.0residual o Iteratiosmoother:  Solving foal residual  Final resi13e-05, No IGAMG:  Solving or p, Initia 0.0061789,ual = 0.0004erations 1
nitial resi3139, Final .000212942, s 1
AMG:  Solvitial residua24dual = 5.507
Initial r000684938, Fl = 5.82411eations 1
 Solving fo94487, Final.10418e-05, Nns 2
 errors : s89491e+18, g836e+17, cum3.83965e+18ExecutionTime = 30.57 s  Clo s
90
smoothSolver:  Solving for l residual = 0.inal residual5, No IterasmoothSolvSolving for residual = inal residue-06, No ItsmoothSolver: Solving for Uz, Initial residual 5, No IteratGAMG:  ing for p, Iual = 0.0058residual = No IteratioGAMGolving for psidual = 0.0al residual 1, No Iterations 1
ing f residual =  Final resiIterations 2
 for p, Ini = 0.0006291sidual = 5.3 terations 1
 for p, Inl = 0.000360esidual = 1. Iterations time step rrors : sum 179e+18, gl63e+17, cumu.66628e+18
 130.63 s 152 s
Time =1991
smoothSolver:  Solving tial residuaal = 1.39781rations 2
ver:  Solviitial residusidual = 8.75146e-06, Ns 2
hSolver:  Sz, Initial r0152237, Final residual = 1ons 2
nitial resiual = 0.005residual = 0No IterationGAMG:  Solvig for p, Initial residua7, Final residual = 0.00019ations 1
or p, Init = 0.0009340sidual = 4.6 Iterations GAMG:  Solving , Initial resi578691, Fina 4.92584e-05ons 1
ing for p, Ial = 0.00032residual = 1.68897e-05, ns 2
step contin: sum local 8, global =  cumulative = -3.55628e+18
onTime = 13Time = 152 s
Time = 1992
smoothSolver:  Slving for Uxsidual = 0.0l residual =, No IteratismoothSolver  Solving for Uy= 0.0149313, Fi = 8.43485e-tions 2
oothSolver: Uz, Initial0.0153118, Final residual05, No IteraGAMG:  Solv p, Initial .00568837, al = 0.00042eations 1
MG:  Solving for p, Ini = 0.0020757idual = 0.00Iterations 1GAMG:  Solving  Initial resi905893, Fina 4.35041e-05, No IteratGAMG:  Sng for p, Inal = 0.00053esidual = 4.terations 1
p, Initial 000303545, Fi = 1.55178e-tions 2
 errors : su3367e+18, gl381e+16, cum.51284e+18
ecutionTime ClockTime =
Time =
oothSolver: Ux, Initial0.0183901, Fl = 1.31217eations 2
lver:  Solvnitial residual = 0.0146722, Fina 8.07745e-06 No IteraiosmoothSolver:olving for Uzesidual = 0nal residual-05, No IteGAMG:  Solving for p, Inal = 0.00570esidual = 0No Iterations 1
ing for p, Iresidual = 0.0 Iterations 1GAMG:  lving for p, dual = 0.000872541, Final r05372e-05, N 2
 Initial re00516047, Fi = 4.35037e-tions 1
, Initial r002al residual = 1. Iterations 2time p continuity31e+18, glob6e+16, cumulative = -3.5Execution = 130.82 s  152 s
4
smoothSolver:  Slving for Uxsidual = 0.0l residual =, No IteratsmoothSolver:  SolvInitial resi3291, Final .72041e-06, s 2
 Solving ial residual, Final resi78e-05, No IGAMG:  olving for p, Indual = 0.0059residual = 0No IterationGAMG: ving for p, Iual = 0.0020residual = 0o Iterations GA Solving for esidual = 0.inal residua-05, No IterGAMG:  Solvingr p, Initial0.000524279,ual = 4.3889rations 1
Initial resi283788, Fina 1.46108e-05ons 2
uity erroal = 1.44184 = -1.32351eive = -3.69618
89 s 152 s
Time = 1995
 Solving fo residual = nal residualtions 2
  Solvingial residual, Final resi07e-06, No IsmoothSolver:olving for Uzsidual = 0.01 residual =  No IteratioGAMG:lving for p,idual = 0.00l residual =No IterationGAMolving for p,idual 16, Final re00191697, No
for pidual = 0.00al residual 05, No IteraGAMG:  Solvin for p, Inial = 0.00054esidual = 4.o IterationsGAMGolving for p, nitial resid4389, Final 1.50028e-05,s 2
inuity ercal = 1.4820l = -1.68984tive = -3.86E130.96 s  Clos
Time = 1996
smootng for Ux, Iiial residual Final resid7e-05, No ItsmoothSolver: Solving for residual = 0nal residual06, No IterasmoothSolv for Uz, Initi= 0.015371, Fi = 1.02493e-tions 2
MG:  Solvinial residual3, Final res0465778, No Iterations 1
MG:  Solvinial residual4, Final res0204633, No GAMG:  Solving Initial residu0642, Final .28927e-05,  2
olving for pidual = 0.00al residual =, No IteratiGAMG:  Sonitial residu8537, Final r59226e-05, Ntime step coors : sum lo7e+18, global+17, cumulat76e+18
ecutionTime  131.02 s  C s
Time = 1
smoothSolver:  Solv Initial ressidual = 1.153terations 2
oothSolver: Uy, Initialresidual = 7No IterationsmoothSer:  Solvingtial residua7, Final res916e-06, No
tial r0632854, Fina 0.000485102GAMG:olving for p,idual = 0.00l residual =, No IteratiGAMG:  Solving for p, Initial .00101612, F = 4.29804e-tions 2
AMG:  Solving  = 0.0006053sidual = 4.8 Iterations GAMG:  ving for p, dual = 0.000 residual = 1.5815e-05, No2
inuity erroal = 1.57977 = -2.29376etive = -4.302ExecutionTim31.09 s  Clo s
e = 1998
smoothSolver Ux, Initial0.0175369, Fl = 1.16102eations 2
smoothSolver:  SUy, Initial resi142546, Final ro Iterations smoothSer:  Solvingtial residual, Final resi09e-06, No IGAMG:  Solvior p, Initia= 0.00639775, Final resi512076, No Iterations 1
r p, Inital residual , Final residual = 0.0002erations 1
  Solving l residual = Final residua-05, No IterGAMG:  Solvitial residua033, Final r4.962 1
g for p, dual = 0.000l residual = 1.56368e-05ons 2
 errors : s60611e+18, g085e+17, cum.55299e+18
= 131.15 s = 152 s
Time = 1
othSolver: Ux, Initial 0178712, Fin 1.20464e-05ons 2
thSolver:  y, Initial r residual =  No IteratiosmoothSolver:  Soing for Uz, Iual = 0.0151esidual = 9.o Iterations GAMG:  Solving ial residual2, Final res0520927, No GAMG:  Solving for p, Initial real = 0.002283idual = 0.00Iterations 1
r p, Init= 0.00100288ual = 4.0428erations 2
g for p, Inl = 0.0005938idual = 4.896terations 1
ial residua15, Final res313e-05, No te step contin : sum local8, global = , cumulative18
= 131.21 s= 152 s
e = 2
sm Solving forresidual = 0.0182978, Fi = 1.27288e-tions 2
er:  Solving fol residual =Final residua06, No IterasmoothSolver Uz, Initial r0150658, Fin= 9.11339e-0ions 2
 r p, Initial r00642668, Fi923, No IterGAMG:  Solving for p, Intial residuaual = 0.0002rations 1
MG:  Solvinial residual2, Final resirations 2
lving for pdual = 0.000l residual =, No IteratiGAMG:  Solg for p, Init = 0.0003205sidual = 1.3Iterations 2tsep continuitym local = 1.lobal = -2.3tive = -5.0074eExecuTime = 131.41e = 152 s
End

