/*---------------------------------------------------------------------------*\
| =========                 |                                                 |
| \\      /  F ield         | OpenFOAM: The Open Source CFD Toolbox           |
|  \\    /   O peration     | Version:  2506                                  |
|   \\  /    A nd           | Website:  www.openfoam.com                      |
|    \\/     M anipulation  |                                                 |
\*---------------------------------------------------------------------------*/
Build  : _615aae61-20250627 OPENFOAM=2506 version=2506
Arch   : "LSB;label=32;scalar=64"
Exec   : simpleFoam -noFunctionObjects -case /home/ubuntu/fan_CFD_dataset/cases/fan_7
Date   : Nov 07 2025
Time   : 15:23:14
Host   : ip-172-31-37-87
PID    : 181035
I/O    : uncollated
Case   : /home/ubuntu/fan_CFD_dataset/cases/fan_7
nProcs : 1
trapFpe: Floating point exception trapping enabled (FOAM_SIGFPE).
fileModificationChecking : Monitoring run-time modified files using timeStampMaster (fileModificationSkew 5, maxFileModificationPolls 20)
allowSystemOperations : Allowing user-supplied system call operations

// * * * * * * * * * * * * * * * * * * * * * * * * * * * * * * * * * * * * * //
Create time

Create mesh for time = 0


SIMPLE: convergence criteria
    field U	 tolerance 1e-05
    field p	 tolerance 0.0001

Reading field p

Reading field U

Reading/calculating face flux field phi

Selecting incompressible transport model Newtonian
Selecting turbulence model type laminar
Selecting laminar stress model Stokes
No MRF models present

No finite volume options present

Starting time loop

Time = 1

smoothSolver:  Solving for Ux, Initial residual = 1, Final residual = 0.000281612, No Iterations 2
smoothSolver:  Solving for Uy, Initial residual = 1, Final residual = 0.000296033, No Iterations 2
smoothSolver:  Solving for Uz, Initial residual = 1, Final residual = 0.000515929, No Iterations 2
GAMG:  Solving for p, Initial residual = 1, Final residual = 0.0380532, No Iterations 4
GAMG:  Solving for p, Initial residual = 0.0948316, Final residual = 0.00644521, No Iterations 1
GAMG:  Solving for p, Initial residual = 0.0256009, Final residual = 0.00254076, No Iterations 1
GAMG:  Solving for p, Initial residual = 0.0122044, Final residual = 0.000518388, No Iterations 2
GAMG:  Solving for p, Initial residual = 0.00880984, Final residual = 0.00064295, No Iterations 1
time step continuity errors : sum local = 13.0433, global = -3.76285, cumulative = -3.76285
ExecutionTime = 0.24 s  ClockTime = 0 s

Time = 2

smoothSolver:  Solving for Ux, Initial residual = 0.0518367, Final residual = 2.16335e-05, No Iterations 2
smoothSolver:  Solving for Uy, Initial residual = 0.0486756, Final residual = 2.14918e-05, No Iterations 2
smoothSolver:  Solving for Uz, Initial residual = 0.171808, Final residual = 5.6036e-05, No Iterations 2
GAMG:  Solving for p, Initial residual = 0.28709, Final residual = 0.0135241, No Iterations 4
GAMG:  Solving for p, Initial residual = 0.0281904, Final residual = 0.00192303, No Iterations 1
GAMG:  Solving for p, Initial residual = 0.00932819, Final residual = 0.000884756, No Iterations 1
GAMG:  Solving for p, Initial residual = 0.004915, Final residual = 0.000206144, No Iterations 2
GAMG:  Solving for p, Initial residual = 0.0037638, Final residual = 0.000264496, No Iterations 1
time step continuity errors : sum local = 15.7091, global = -3.45791, cumulative = -7.22076
ExecutionTime = 0.32 s  ClockTime = 1 s

Time = 3

smoothSolver:  Solving for Ux, Initial residual = 0.19057, Final residual = 8.45564e-05, No Iterations 2
smoothSolver:  Solving for Uy, Initial residual = 0.193905, Final residual = 8.61842e-05, No Iterations 2
smoothSolver:  Solving for Uz, Initial residual = 0.478245, Final residual = 0.000181015, No Iterations 2
GAMG:  Solving for p, Initial residual = 0.0367275, Final residual = 0.00227652, No Iterations 3
GAMG:  Solving for p, Initial residual = 0.0296029, Final residual = 0.00199109, No Iterations 1
GAMG:  Solving for p, Initial residual = 0.00928993, Final residual = 0.000882796, No Iterations 1
GAMG:  Solving for p, Initial residual = 0.00499264, Final residual = 0.000221339, No Iterations 2
GAMG:  Solving for p, Initial residual = 0.00391386, Final residual = 0.000278994, No Iterations 1
time step continuity errors : sum local = 8.16473, global = -1.82732, cumulative = -9.04808
ExecutionTime = 0.4 s  ClockTime = 1 s

Time = 4

smoothSolver:  Solving for Ux, Initial residual = 0.176526, Final residual = 7.58849e-05, No Iterations 2
smoothSolver:  Solving for Uy, Initial residual = 0.177648, Final residual = 7.71672e-05, No Iterations 2
smoothSolver:  Solving for Uz, Initial residual = 0.470332, Final residual = 0.000180415, No Iterations 2
GAMG:  Solving for p, Initial residual = 0.0187805, Final residual = 0.00158525, No Iterations 1
GAMG:  Solving for p, Initial residual = 0.00720061, Final residual = 0.000353143, No Iterations 2
GAMG:  Solving for p, Initial residual = 0.0058417, Final residual = 0.000381748, No Iterations 1
GAMG:  Solving for p, Initial residual = 0.00252495, Final residual = 0.000243457, No Iterations 1
GAMG:  Solving for p, Initial residual = 0.00172445, Final residual = 0.00016744, No Iterations 1
time step continuity errors : sum local = 3.09474, global = -0.670581, cumulative = -9.71866
ExecutionTime = 0.47 s  ClockTime = 1 s

Time = 5

smoothSolver:  Solving for Ux, Initial residual = 0.134141, Final residual = 5.6234e-05, No Iterations 2
smoothSolver:  Solving for Uy, Initial residual = 0.134461, Final residual = 5.73462e-05, No Iterations 2
smoothSolver:  Solving for Uz, Initial residual = 0.396432, Final residual = 0.000152524, No Iterations 2
GAMG:  Solving for p, Initial residual = 0.0199778, Final residual = 0.00136494, No Iterations 2
GAMG:  Solving for p, Initial residual = 0.0606271, Final residual = 0.00398356, No Iterations 1
GAMG:  Solving for p, Initial residual = 0.0224664, Final residual = 0.00100435, No Iterations 2
GAMG:  Solving for p, Initial residual = 0.0300166, Final residual = 0.0019986, No Iterations 1
GAMG:  Solving for p, Initial residual = 0.0133362, Final residual = 0.000568831, No Iterations 2
time step continuity errors : sum local = 1.72723, global = 0.183869, cumulative = -9.53479
ExecutionTime = 0.54 s  ClockTime = 1 s

Time = 6

smoothSolver:  Solving for Ux, Initial residual = 0.092544, Final residual = 4.1175e-05, No Iterations 2
smoothSolver:  Solving for Uy, Initial residual = 0.0924985, Final residual = 4.21397e-05, No Iterations 2
smoothSolver:  Solving for Uz, Initial residual = 0.282087, Final residual = 0.000110567, No Iterations 2
GAMG:  Solving for p, Initial residual = 0.0264746, Final residual = 0.00151562, No Iterations 3
GAMG:  Solving for p, Initial residual = 0.0801219, Final residual = 0.00540162, No Iterations 1
GAMG:  Solving for p, Initial residual = 0.0259816, Final residual = 0.0024587, No Iterations 1
GAMG:  Solving for p, Initial residual = 0.0132943, Final residual = 0.000578935, No Iterations 2
GAMG:  Solving for p, Initial residual = 0.00953696, Final residual = 0.000670448, No Iterations 1
time step continuity errors : sum local = 7.18407, global = 1.61512, cumulative = -7.91967
ExecutionTime = 0.62 s  ClockTime = 1 s

Time = 7

smoothSolver:  Solving for Ux, Initial residual = 0.0563391, Final residual = 2.73019e-05, No Iterations 2
smoothSolver:  Solving for Uy, Initial residual = 0.0561976, Final residual = 2.77813e-05, No Iterations 2
smoothSolver:  Solving for Uz, Initial residual = 0.161089, Final residual = 6.81632e-05, No Iterations 2
GAMG:  Solving for p, Initial residual = 0.0400414, Final residual = 0.00261659, No Iterations 3
GAMG:  Solving for p, Initial residual = 0.0539789, Final residual = 0.00362165, No Iterations 1
GAMG:  Solving for p, Initial residual = 0.0172797, Final residual = 0.00162687, No Iterations 1
GAMG:  Solving for p, Initial residual = 0.00911934, Final residual = 0.000399388, No Iterations 2
GAMG:  Solving for p, Initial residual = 0.00686529, Final residual = 0.000483364, No Iterations 1
time step continuity errors : sum local = 8.57342, global = 1.91055, cumulative = -6.00912
ExecutionTime = 0.69 s  ClockTime = 1 s

Time = 8

smoothSolver:  Solving for Ux, Initial residual = 0.0330537, Final residual = 1.82968e-05, No Iterations 2
smoothSolver:  Solving for Uy, Initial residual = 0.0328, Final residual = 1.84548e-05, No Iterations 2
smoothSolver:  Solving for Uz, Initial residual = 0.0650078, Final residual = 3.50377e-05, No Iterations 2
GAMG:  Solving for p, Initial residual = 0.101913, Final residual = 0.00625942, No Iterations 3
GAMG:  Solving for p, Initial residual = 0.0428211, Final residual = 0.00286331, No Iterations 1
GAMG:  Solving for p, Initial residual = 0.013787, Final residual = 0.00129354, No Iterations 1
GAMG:  Solving for p, Initial residual = 0.00743687, Final residual = 0.000327677, No Iterations 2
GAMG:  Solving for p, Initial residual = 0.0057418, Final residual = 0.000405646, No Iterations 1
time step continuity errors : sum local = 7.89624, global = 1.76876, cumulative = -4.24036
ExecutionTime = 0.76 s  ClockTime = 1 s

Time = 9

smoothSolver:  Solving for Ux, Initial residual = 0.0320747, Final residual = 1.82195e-05, No Iterations 2
smoothSolver:  Solving for Uy, Initial residual = 0.0310953, Final residual = 1.77303e-05, No Iterations 2
smoothSolver:  Solving for Uz, Initial residual = 0.0752539, Final residual = 3.66491e-05, No Iterations 2
GAMG:  Solving for p, Initial residual = 0.0942397, Final residual = 0.00822756, No Iterations 2
GAMG:  Solving for p, Initial residual = 0.0326828, Final residual = 0.0021527, No Iterations 1
GAMG:  Solving for p, Initial residual = 0.0111928, Final residual = 0.000499418, No Iterations 2
GAMG:  Solving for p, Initial residual = 0.00857908, Final residual = 0.000578834, No Iterations 1
GAMG:  Solving for p, Initial residual = 0.00390029, Final residual = 0.000383112, No Iterations 1
time step continuity errors : sum local = 6.34859, global = 1.35542, cumulative = -2.88494
ExecutionTime = 0.84 s  ClockTime = 1 s

Time = 10

smoothSolver:  Solving for Ux, Initial residual = 0.0444687, Final residual = 2.22668e-05, No Iterations 2
smoothSolver:  Solving for Uy, Initial residual = 0.0432402, Final residual = 2.11775e-05, No Iterations 2
smoothSolver:  Solving for Uz, Initial residual = 0.146186, Final residual = 5.88562e-05, No Iterations 2
GAMG:  Solving for p, Initial residual = 0.0507932, Final residual = 0.00241031, No Iterations 2
GAMG:  Solving for p, Initial residual = 0.0208652, Final residual = 0.00138933, No Iterations 1
GAMG:  Solving for p, Initial residual = 0.00796986, Final residual = 0.00079606, No Iterations 1
GAMG:  Solving for p, Initial residual = 0.0053466, Final residual = 0.000511052, No Iterations 1
GAMG:  Solving for p, Initial residual = 0.00347501, Final residual = 0.000164975, No Iterations 2
time step continuity errors : sum local = 1.8084, global = 0.202713, cumulative = -2.68222
ExecutionTime = 0.91 s  ClockTime = 1 s

Time = 11

smoothSolver:  Solving for Ux, Initial residual = 0.0553782, Final residual = 2.57779e-05, No Iterations 2
smoothSolver:  Solving for Uy, Initial residual = 0.0537646, Final residual = 2.47896e-05, No Iterations 2
smoothSolver:  Solving for Uz, Initial residual = 0.196227, Final residual = 7.56412e-05, No Iterations 2
GAMG:  Solving for p, Initial residual = 0.0440632, Final residual = 0.00356088, No Iterations 1
GAMG:  Solving for p, Initial residual = 0.0168681, Final residual = 0.000726194, No Iterations 2
GAMG:  Solving for p, Initial residual = 0.0140899, Final residual = 0.00092654, No Iterations 1
GAMG:  Solving for p, Initial residual = 0.00569798, Final residual = 0.000245814, No Iterations 2
GAMG:  Solving for p, Initial residual = 0.00466821, Final residual = 0.000330022, No Iterations 1
time step continuity errors : sum local = 1.50691, global = -0.358455, cumulative = -3.04068
ExecutionTime = 0.98 s  ClockTime = 1 s

Time = 12

smoothSolver:  Solving for Ux, Initial residual = 0.0572701, Final residual = 2.63013e-05, No Iterations 2
smoothSolver:  Solving for Uy, Initial residual = 0.0554616, Final residual = 2.53273e-05, No Iterations 2
smoothSolver:  Solving for Uz, Initial residual = 0.19827, Final residual = 7.56304e-05, No Iterations 2
GAMG:  Solving for p, Initial residual = 0.0460584, Final residual = 0.00238532, No Iterations 2
GAMG:  Solving for p, Initial residual = 0.180796, Final residual = 0.0117079, No Iterations 1
GAMG:  Solving for p, Initial residual = 0.054013, Final residual = 0.00234622, No Iterations 2
GAMG:  Solving for p, Initial residual = 0.0267062, Final residual = 0.0017614, No Iterations 1
GAMG:  Solving for p, Initial residual = 0.0108409, Final residual = 0.000448057, No Iterations 2
time step continuity errors : sum local = 1.20584, global = -0.149201, cumulative = -3.18988
ExecutionTime = 1.06 s  ClockTime = 1 s

Time = 13

smoothSolver:  Solving for Ux, Initial residual = 0.0490789, Final residual = 2.35362e-05, No Iterations 2
smoothSolver:  Solving for Uy, Initial residual = 0.0475536, Final residual = 2.29137e-05, No Iterations 2
smoothSolver:  Solving for Uz, Initial residual = 0.147485, Final residual = 5.90384e-05, No Iterations 2
GAMG:  Solving for p, Initial residual = 0.0572494, Final residual = 0.0040216, No Iterations 2
GAMG:  Solving for p, Initial residual = 0.066806, Final residual = 0.00437442, No Iterations 1
GAMG:  Solving for p, Initial residual = 0.0214287, Final residual = 0.000937342, No Iterations 2
GAMG:  Solving for p, Initial residual = 0.0144358, Final residual = 0.000963526, No Iterations 1
GAMG:  Solving for p, Initial residual = 0.00609123, Final residual = 0.000608273, No Iterations 1
time step continuity errors : sum local = 4.15162, global = -0.843084, cumulative = -4.03297
ExecutionTime = 1.13 s  ClockTime = 1 s

Time = 14

smoothSolver:  Solving for Ux, Initial residual = 0.0365424, Final residual = 1.89902e-05, No Iterations 2
smoothSolver:  Solving for Uy, Initial residual = 0.0356399, Final residual = 1.85189e-05, No Iterations 2
smoothSolver:  Solving for Uz, Initial residual = 0.0753685, Final residual = 3.47051e-05, No Iterations 2
GAMG:  Solving for p, Initial residual = 0.0947987, Final residual = 0.00761474, No Iterations 2
GAMG:  Solving for p, Initial residual = 0.0489079, Final residual = 0.00323309, No Iterations 1
GAMG:  Solving for p, Initial residual = 0.0160766, Final residual = 0.000709092, No Iterations 2
GAMG:  Solving for p, Initial residual = 0.0116004, Final residual = 0.000778979, No Iterations 1
GAMG:  Solving for p, Initial residual = 0.00503538, Final residual = 0.00049888, No Iterations 1
time step continuity errors : sum local = 4.35946, global = -0.907447, cumulative = -4.94041
ExecutionTime = 1.2 s  ClockTime = 1 s

Time = 15

smoothSolver:  Solving for Ux, Initial residual = 0.0287519, Final residual = 1.58557e-05, No Iterations 2
smoothSolver:  Solving for Uy, Initial residual = 0.02849, Final residual = 1.57896e-05, No Iterations 2
smoothSolver:  Solving for Uz, Initial residual = 0.0423869, Final residual = 2.41948e-05, No Iterations 2
GAMG:  Solving for p, Initial residual = 0.273318, Final residual = 0.0210256, No Iterations 2
GAMG:  Solving for p, Initial residual = 0.0382467, Final residual = 0.00254679, No Iterations 1
GAMG:  Solving for p, Initial residual = 0.0129784, Final residual = 0.000579703, No Iterations 2
GAMG:  Solving for p, Initial residual = 0.00978997, Final residual = 0.000663684, No Iterations 1
GAMG:  Solving for p, Initial residual = 0.00436205, Final residual = 0.000431159, No Iterations 1
time step continuity errors : sum local = 3.67691, global = -0.779467, cumulative = -5.71988
ExecutionTime = 1.27 s  ClockTime = 2 s

Time = 16

smoothSolver:  Solving for Ux, Initial residual = 0.0287033, Final residual = 1.54449e-05, No Iterations 2
smoothSolver:  Solving for Uy, Initial residual = 0.0280879, Final residual = 1.5574e-05, No Iterations 2
smoothSolver:  Solving for Uz, Initial residual = 0.0735125, Final residual = 3.23391e-05, No Iterations 2
GAMG:  Solving for p, Initial residual = 0.073715, Final residual = 0.00447195, No Iterations 2
GAMG:  Solving for p, Initial residual = 0.0280637, Final residual = 0.00189815, No Iterations 1
GAMG:  Solving for p, Initial residual = 0.0103086, Final residual = 0.000481895, No Iterations 2
GAMG:  Solving for p, Initial residual = 0.00819793, Final residual = 0.000563732, No Iterations 1
GAMG:  Solving for p, Initial residual = 0.00378748, Final residual = 0.000372996, No Iterations 1
time step continuity errors : sum local = 2.49544, global = -0.529558, cumulative = -6.24944
ExecutionTime = 1.34 s  ClockTime = 2 s

Time = 17

smoothSolver:  Solving for Ux, Initial residual = 0.0299486, Final residual = 1.53602e-05, No Iterations 2
smoothSolver:  Solving for Uy, Initial residual = 0.0291387, Final residual = 1.53871e-05, No Iterations 2
smoothSolver:  Solving for Uz, Initial residual = 0.0955046, Final residual = 3.82121e-05, No Iterations 2
GAMG:  Solving for p, Initial residual = 0.0498967, Final residual = 0.00141001, No Iterations 2
GAMG:  Solving for p, Initial residual = 0.0206849, Final residual = 0.00145234, No Iterations 1
GAMG:  Solving for p, Initial residual = 0.00840658, Final residual = 0.000821674, No Iterations 1
GAMG:  Solving for p, Initial residual = 0.00541923, Final residual = 0.000261708, No Iterations 2
GAMG:  Solving for p, Initial residual = 0.00447464, Final residual = 0.000318822, No Iterations 1
time step continuity errors : sum local = 1.26667, global = -0.206293, cumulative = -6.45573
ExecutionTime = 1.41 s  ClockTime = 2 s

Time = 18

smoothSolver:  Solving for Ux, Initial residual = 0.0286788, Final residual = 1.47014e-05, No Iterations 2
smoothSolver:  Solving for Uy, Initial residual = 0.0279387, Final residual = 1.45312e-05, No Iterations 2
smoothSolver:  Solving for Uz, Initial residual = 0.0933899, Final residual = 3.66089e-05, No Iterations 2
GAMG:  Solving for p, Initial residual = 0.0452609, Final residual = 0.00182022, No Iterations 2
GAMG:  Solving for p, Initial residual = 0.0545925, Final residual = 0.00358898, No Iterations 1
GAMG:  Solving for p, Initial residual = 0.019496, Final residual = 0.000840264, No Iterations 2
GAMG:  Solving for p, Initial residual = 0.0200715, Final residual = 0.00135696, No Iterations 1
GAMG:  Solving for p, Initial residual = 0.00874512, Final residual = 0.000375692, No Iterations 2
time step continuity errors : sum local = 0.445381, global = 0.065019, cumulative = -6.39071
ExecutionTime = 1.49 s  ClockTime = 2 s

Time = 19

smoothSolver:  Solving for Ux, Initial residual = 0.0249052, Final residual = 1.31708e-05, No Iterations 2
smoothSolver:  Solving for Uy, Initial residual = 0.0244216, Final residual = 1.29953e-05, No Iterations 2
smoothSolver:  Solving for Uz, Initial residual = 0.0746624, Final residual = 2.9584e-05, No Iterations 2
GAMG:  Solving for p, Initial residual = 0.0477968, Final residual = 0.0027362, No Iterations 2
GAMG:  Solving for p, Initial residual = 0.105634, Final residual = 0.00686654, No Iterations 1
GAMG:  Solving for p, Initial residual = 0.0322054, Final residual = 0.00139521, No Iterations 2
GAMG:  Solving for p, Initial residual = 0.0189655, Final residual = 0.00124903, No Iterations 1
GAMG:  Solving for p, Initial residual = 0.00770881, Final residual = 0.000321213, No Iterations 2
time step continuity errors : sum local = 0.649841, global = 0.0846218, cumulative = -6.30609
ExecutionTime = 1.57 s  ClockTime = 2 s

Time = 20

smoothSolver:  Solving for Ux, Initial residual = 0.0203329, Final residual = 1.1161e-05, No Iterations 2
smoothSolver:  Solving for Uy, Initial residual = 0.0200577, Final residual = 1.10508e-05, No Iterations 2
smoothSolver:  Solving for Uz, Initial residual = 0.0480113, Final residual = 2.0716e-05, No Iterations 2
GAMG:  Solving for p, Initial residual = 0.059449, Final residual = 0.00413479, No Iterations 2
GAMG:  Solving for p, Initial residual = 0.0589711, Final residual = 0.00387415, No Iterations 1
GAMG:  Solving for p, Initial residual = 0.0187574, Final residual = 0.000821195, No Iterations 2
GAMG:  Solving for p, Initial residual = 0.0128717, Final residual = 0.000858506, No Iterations 1
GAMG:  Solving for p, Initial residual = 0.00540231, Final residual = 0.000228144, No Iterations 2
time step continuity errors : sum local = 0.800854, global = 0.101057, cumulative = -6.20503
ExecutionTime = 1.64 s  ClockTime = 2 s

Time = 21

smoothSolver:  Solving for Ux, Initial residual = 0.017184, Final residual = 9.56832e-06, No Iterations 2
smoothSolver:  Solving for Uy, Initial residual = 0.0170664, Final residual = 9.51075e-06, No Iterations 2
smoothSolver:  Solving for Uz, Initial residual = 0.0260466, Final residual = 1.35797e-05, No Iterations 2
GAMG:  Solving for p, Initial residual = 0.102597, Final residual = 0.00741431, No Iterations 2
GAMG:  Solving for p, Initial residual = 0.0440022, Final residual = 0.00292306, No Iterations 1
GAMG:  Solving for p, Initial residual = 0.0145048, Final residual = 0.000642719, No Iterations 2
GAMG:  Solving for p, Initial residual = 0.0105961, Final residual = 0.000715659, No Iterations 1
GAMG:  Solving for p, Initial residual = 0.00458986, Final residual = 0.000196589, No Iterations 2
time step continuity errors : sum local = 0.784635, global = 0.0968815, cumulative = -6.10815
ExecutionTime = 1.71 s  ClockTime = 2 s

Time = 22

smoothSolver:  Solving for Ux, Initial residual = 0.0162938, Final residual = 8.83556e-06, No Iterations 2
smoothSolver:  Solving for Uy, Initial residual = 0.0161777, Final residual = 8.72179e-06, No Iterations 2
smoothSolver:  Solving for Uz, Initial residual = 0.0244901, Final residual = 1.25771e-05, No Iterations 2
GAMG:  Solving for p, Initial residual = 0.167043, Final residual = 0.010536, No Iterations 2
GAMG:  Solving for p, Initial residual = 0.0337858, Final residual = 0.00228476, No Iterations 1
GAMG:  Solving for p, Initial residual = 0.0118212, Final residual = 0.000536224, No Iterations 2
GAMG:  Solving for p, Initial residual = 0.00907718, Final residual = 0.000619789, No Iterations 1
GAMG:  Solving for p, Initial residual = 0.00406718, Final residual = 0.000404283, No Iterations 1
time step continuity errors : sum local = 1.44547, global = 0.308144, cumulative = -5.80001
ExecutionTime = 1.78 s  ClockTime = 2 s

Time = 23

smoothSolver:  Solving for Ux, Initial residual = 0.0166801, Final residual = 8.6706e-06, No Iterations 2
smoothSolver:  Solving for Uy, Initial residual = 0.016405, Final residual = 8.3518e-06, No Iterations 2
smoothSolver:  Solving for Uz, Initial residual = 0.0328654, Final residual = 1.45209e-05, No Iterations 2
GAMG:  Solving for p, Initial residual = 0.0752286, Final residual = 0.00735511, No Iterations 1
GAMG:  Solving for p, Initial residual = 0.0261661, Final residual = 0.00129953, No Iterations 2
GAMG:  Solving for p, Initial residual = 0.0164604, Final residual = 0.00111925, No Iterations 1
GAMG:  Solving for p, Initial residual = 0.0068589, Final residual = 0.000684763, No Iterations 1
GAMG:  Solving for p, Initial residual = 0.00457647, Final residual = 0.00044842, No Iterations 1
time step continuity errors : sum local = 1.10668, global = 0.248572, cumulative = -5.55143
ExecutionTime = 1.86 s  ClockTime = 2 s

Time = 24

smoothSolver:  Solving for Ux, Initial residual = 0.0170204, Final residual = 8.4151e-06, No Iterations 2
smoothSolver:  Solving for Uy, Initial residual = 0.0165985, Final residual = 8.12116e-06, No Iterations 2
smoothSolver:  Solving for Uz, Initial residual = 0.0372764, Final residual = 1.52755e-05, No Iterations 2
GAMG:  Solving for p, Initial residual = 0.0588886, Final residual = 0.00173899, No Iterations 2
GAMG:  Solving for p, Initial residual = 0.029685, Final residual = 0.00212937, No Iterations 1
GAMG:  Solving for p, Initial residual = 0.0115779, Final residual = 0.000446938, No Iterations 2
GAMG:  Solving for p, Initial residual = 0.00857694, Final residual = 0.000634897, No Iterations 1
GAMG:  Solving for p, Initial residual = 0.00424257, Final residual = 0.000163707, No Iterations 2
time step continuity errors : sum local = 0.204813, global = -0.0114718, cumulative = -5.56291
ExecutionTime = 1.93 s  ClockTime = 2 s

Time = 25

smoothSolver:  Solving for Ux, Initial residual = 0.016697, Final residual = 8.08852e-06, No Iterations 2
smoothSolver:  Solving for Uy, Initial residual = 0.0162407, Final residual = 7.79886e-06, No Iterations 2
smoothSolver:  Solving for Uz, Initial residual = 0.0350087, Final residual = 1.41752e-05, No Iterations 2
GAMG:  Solving for p, Initial residual = 0.0574665, Final residual = 0.00251661, No Iterations 2
GAMG:  Solving for p, Initial residual = 0.141354, Final residual = 0.0092699, No Iterations 1
GAMG:  Solving for p, Initial residual = 0.0429662, Final residual = 0.0018327, No Iterations 2
GAMG:  Solving for p, Initial residual = 0.0224808, Final residual = 0.00150321, No Iterations 1
GAMG:  Solving for p, Initial residual = 0.0093358, Final residual = 0.000393258, No Iterations 2
time step continuity errors : sum local = 0.252749, global = -0.0370573, cumulative = -5.59996
ExecutionTime = 2 s  ClockTime = 2 s

Time = 26

smoothSolver:  Solving for Ux, Initial residual = 0.0157225, Final residual = 7.57743e-06, No Iterations 2
smoothSolver:  Solving for Uy, Initial residual = 0.0153458, Final residual = 7.41207e-06, No Iterations 2
smoothSolver:  Solving for Uz, Initial residual = 0.0271206, Final residual = 1.14804e-05, No Iterations 2
GAMG:  Solving for p, Initial residual = 0.0672205, Final residual = 0.00364299, No Iterations 2
GAMG:  Solving for p, Initial residual = 0.0545588, Final residual = 0.0035629, No Iterations 1
GAMG:  Solving for p, Initial residual = 0.0172251, Final residual = 0.000741697, No Iterations 2
GAMG:  Solving for p, Initial residual = 0.0116558, Final residual = 0.000769958, No Iterations 1
GAMG:  Solving for p, Initial residual = 0.00483058, Final residual = 0.000202254, No Iterations 2
time step continuity errors : sum local = 0.327193, global = -0.0443332, cumulative = -5.6443
ExecutionTime = 2.08 s  ClockTime = 2 s

Time = 27

smoothSolver:  Solving for Ux, Initial residual = 0.0145848, Final residual = 7.10625e-06, No Iterations 2
smoothSolver:  Solving for Uy, Initial residual = 0.0143269, Final residual = 7.06647e-06, No Iterations 2
smoothSolver:  Solving for Uz, Initial residual = 0.0184823, Final residual = 8.65847e-06, No Iterations 2
GAMG:  Solving for p, Initial residual = 0.101865, Final residual = 0.00604756, No Iterations 2
GAMG:  Solving for p, Initial residual = 0.0392057, Final residual = 0.00259007, No Iterations 1
GAMG:  Solving for p, Initial residual = 0.0127967, Final residual = 0.000560146, No Iterations 2
GAMG:  Solving for p, Initial residual = 0.00932743, Final residual = 0.00062211, No Iterations 1
GAMG:  Solving for p, Initial residual = 0.00396573, Final residual = 0.000168251, No Iterations 2
time step continuity errors : sum local = 0.363709, global = -0.0477635, cumulative = -5.69206
ExecutionTime = 2.15 s  ClockTime = 2 s

Time = 28

smoothSolver:  Solving for Ux, Initial residual = 0.0136996, Final residual = 6.7314e-06, No Iterations 2
smoothSolver:  Solving for Uy, Initial residual = 0.013545, Final residual = 6.76644e-06, No Iterations 2
smoothSolver:  Solving for Uz, Initial residual = 0.0149904, Final residual = 7.57393e-06, No Iterations 2
GAMG:  Solving for p, Initial residual = 0.159436, Final residual = 0.00907251, No Iterations 2
GAMG:  Solving for p, Initial residual = 0.0304264, Final residual = 0.00203955, No Iterations 1
GAMG:  Solving for p, Initial residual = 0.010458, Final residual = 0.000466767, No Iterations 2
GAMG:  Solving for p, Initial residual = 0.00802576, Final residual = 0.000541768, No Iterations 1
GAMG:  Solving for p, Initial residual = 0.00352215, Final residual = 0.000151059, No Iterations 2
time step continuity errors : sum local = 0.338664, global = -0.0435203, cumulative = -5.73558
ExecutionTime = 2.22 s  ClockTime = 2 s

Time = 29

smoothSolver:  Solving for Ux, Initial residual = 0.0131934, Final residual = 6.55439e-06, No Iterations 2
smoothSolver:  Solving for Uy, Initial residual = 0.0130461, Final residual = 6.58938e-06, No Iterations 2
smoothSolver:  Solving for Uz, Initial residual = 0.0173228, Final residual = 8.0695e-06, No Iterations 2
GAMG:  Solving for p, Initial residual = 0.0736327, Final residual = 0.00359374, No Iterations 2
GAMG:  Solving for p, Initial residual = 0.0235934, Final residual = 0.00161654, No Iterations 1
GAMG:  Solving for p, Initial residual = 0.00883032, Final residual = 0.000409154, No Iterations 2
GAMG:  Solving for p, Initial residual = 0.00710754, Final residual = 0.000486962, No Iterations 1
GAMG:  Solving for p, Initial residual = 0.00321877, Final residual = 0.000320304, No Iterations 1
time step continuity errors : sum local = 0.614444, global = -0.129409, cumulative = -5.86499
ExecutionTime = 2.3 s  ClockTime = 3 s

Time = 30

smoothSolver:  Solving for Ux, Initial residual = 0.0128461, Final residual = 6.40919e-06, No Iterations 2
smoothSolver:  Solving for Uy, Initial residual = 0.0126754, Final residual = 6.42583e-06, No Iterations 2
smoothSolver:  Solving for Uz, Initial residual = 0.0202272, Final residual = 8.66831e-06, No Iterations 2
GAMG:  Solving for p, Initial residual = 0.0537526, Final residual = 0.0051997, No Iterations 1
GAMG:  Solving for p, Initial residual = 0.0193868, Final residual = 0.000842609, No Iterations 2
GAMG:  Solving for p, Initial residual = 0.0119629, Final residual = 0.000841745, No Iterations 1
GAMG:  Solving for p, Initial residual = 0.00527044, Final residual = 0.000238037, No Iterations 2
GAMG:  Solving for p, Initial residual = 0.00426983, Final residual = 0.000305409, No Iterations 1
time step continuity errors : sum local = 0.421576, global = -0.0722443, cumulative = -5.93723
ExecutionTime = 2.37 s  ClockTime = 3 s

Time = 31

smoothSolver:  Solving for Ux, Initial residual = 0.0124455, Final residual = 6.24997e-06, No Iterations 2
smoothSolver:  Solving for Uy, Initial residual = 0.0122763, Final residual = 6.23034e-06, No Iterations 2
smoothSolver:  Solving for Uz, Initial residual = 0.0207745, Final residual = 8.72376e-06, No Iterations 2
GAMG:  Solving for p, Initial residual = 0.0486206, Final residual = 0.00452578, No Iterations 1
GAMG:  Solving for p, Initial residual = 0.0198107, Final residual = 0.000826876, No Iterations 2
GAMG:  Solving for p, Initial residual = 0.0157576, Final residual = 0.00106488, No Iterations 1
GAMG:  Solving for p, Initial residual = 0.00650372, Final residual = 0.000270825, No Iterations 2
GAMG:  Solving for p, Initial residual = 0.00514064, Final residual = 0.000371127, No Iterations 1
time step continuity errors : sum local = 0.29592, global = 0.0694935, cumulative = -5.86774
ExecutionTime = 2.44 s  ClockTime = 3 s

Time = 32

smoothSolver:  Solving for Ux, Initial residual = 0.0119536, Final residual = 5.99147e-06, No Iterations 2
smoothSolver:  Solving for Uy, Initial residual = 0.0118389, Final residual = 5.98936e-06, No Iterations 2
smoothSolver:  Solving for Uz, Initial residual = 0.0188948, Final residual = 8.02956e-06, No Iterations 2
GAMG:  Solving for p, Initial residual = 0.0490363, Final residual = 0.00469925, No Iterations 1
GAMG:  Solving for p, Initial residual = 0.0331016, Final residual = 0.00147888, No Iterations 2
GAMG:  Solving for p, Initial residual = 0.0484629, Final residual = 0.00306423, No Iterations 1
GAMG:  Solving for p, Initial residual = 0.0191769, Final residual = 0.000802899, No Iterations 2
GAMG:  Solving for p, Initial residual = 0.0147822, Final residual = 0.000991841, No Iterations 1
time step continuity errors : sum local = 0.342439, global = 0.0900961, cumulative = -5.77764
ExecutionTime = 2.51 s  ClockTime = 3 s

Time = 33

smoothSolver:  Solving for Ux, Initial residual = 0.0114776, Final residual = 5.71098e-06, No Iterations 2
smoothSolver:  Solving for Uy, Initial residual = 0.011441, Final residual = 5.73284e-06, No Iterations 2
smoothSolver:  Solving for Uz, Initial residual = 0.0156059, Final residual = 6.95012e-06, No Iterations 2
GAMG:  Solving for p, Initial residual = 0.0548276, Final residual = 0.00239937, No Iterations 2
GAMG:  Solving for p, Initial residual = 0.0647605, Final residual = 0.00417914, No Iterations 1
GAMG:  Solving for p, Initial residual = 0.0204231, Final residual = 0.0008644, No Iterations 2
GAMG:  Solving for p, Initial residual = 0.0129681, Final residual = 0.00084975, No Iterations 1
GAMG:  Solving for p, Initial residual = 0.00543375, Final residual = 0.000228336, No Iterations 2
time step continuity errors : sum local = 0.160435, global = 0.0229861, cumulative = -5.75466
ExecutionTime = 2.59 s  ClockTime = 3 s

Time = 34

smoothSolver:  Solving for Ux, Initial residual = 0.0111163, Final residual = 5.41291e-06, No Iterations 2
smoothSolver:  Solving for Uy, Initial residual = 0.0111398, Final residual = 5.48198e-06, No Iterations 2
smoothSolver:  Solving for Uz, Initial residual = 0.0127953, Final residual = 5.98676e-06, No Iterations 2
GAMG:  Solving for p, Initial residual = 0.0681291, Final residual = 0.00297654, No Iterations 2
GAMG:  Solving for p, Initial residual = 0.0463223, Final residual = 0.00301028, No Iterations 1
GAMG:  Solving for p, Initial residual = 0.0152645, Final residual = 0.000654371, No Iterations 2
GAMG:  Solving for p, Initial residual = 0.0104945, Final residual = 0.000690192, No Iterations 1
GAMG:  Solving for p, Initial residual = 0.00448527, Final residual = 0.000189542, No Iterations 2
time step continuity errors : sum local = 0.162725, global = 0.0221671, cumulative = -5.73249
ExecutionTime = 2.66 s  ClockTime = 3 s

Time = 35

smoothSolver:  Solving for Ux, Initial residual = 0.0109264, Final residual = 5.21027e-06, No Iterations 2
smoothSolver:  Solving for Uy, Initial residual = 0.010959, Final residual = 5.29911e-06, No Iterations 2
smoothSolver:  Solving for Uz, Initial residual = 0.0117925, Final residual = 5.52789e-06, No Iterations 2
GAMG:  Solving for p, Initial residual = 0.0930451, Final residual = 0.0083553, No Iterations 1
GAMG:  Solving for p, Initial residual = 0.0447781, Final residual = 0.00203987, No Iterations 2
GAMG:  Solving for p, Initial residual = 0.0202897, Final residual = 0.0013115, No Iterations 1
GAMG:  Solving for p, Initial residual = 0.00797167, Final residual = 0.000336021, No Iterations 2
GAMG:  Solving for p, Initial residual = 0.0060793, Final residual = 0.000411036, No Iterations 1
time step continuity errors : sum local = 0.34379, global = 0.0826017, cumulative = -5.64989
ExecutionTime = 2.74 s  ClockTime = 3 s

Time = 36

smoothSolver:  Solving for Ux, Initial residual = 0.0108081, Final residual = 5.0433e-06, No Iterations 2
smoothSolver:  Solving for Uy, Initial residual = 0.0108418, Final residual = 5.13024e-06, No Iterations 2
smoothSolver:  Solving for Uz, Initial residual = 0.0118907, Final residual = 5.40727e-06, No Iterations 2
GAMG:  Solving for p, Initial residual = 0.132836, Final residual = 0.01077, No Iterations 1
GAMG:  Solving for p, Initial residual = 0.0416154, Final residual = 0.00183087, No Iterations 2
GAMG:  Solving for p, Initial residual = 0.0198854, Final residual = 0.00132943, No Iterations 1
GAMG:  Solving for p, Initial residual = 0.00807322, Final residual = 0.000343008, No Iterations 2
GAMG:  Solving for p, Initial residual = 0.00614906, Final residual = 0.000426652, No Iterations 1
time step continuity errors : sum local = 0.27269, global = 0.0599606, cumulative = -5.58993
ExecutionTime = 2.8 s  ClockTime = 3 s

Time = 37

smoothSolver:  Solving for Ux, Initial residual = 0.0106704, Final residual = 4.91132e-06, No Iterations 2
smoothSolver:  Solving for Uy, Initial residual = 0.010717, Final residual = 4.99227e-06, No Iterations 2
smoothSolver:  Solving for Uz, Initial residual = 0.0120217, Final residual = 5.34278e-06, No Iterations 2
GAMG:  Solving for p, Initial residual = 0.122325, Final residual = 0.0105086, No Iterations 1
GAMG:  Solving for p, Initial residual = 0.0391702, Final residual = 0.00125754, No Iterations 2
GAMG:  Solving for p, Initial residual = 0.0199382, Final residual = 0.00142787, No Iterations 1
GAMG:  Solving for p, Initial residual = 0.00890176, Final residual = 0.000876274, No Iterations 1
GAMG:  Solving for p, Initial residual = 0.00554094, Final residual = 0.000234239, No Iterations 2
time step continuity errors : sum local = 0.0863428, global = 0.0129268, cumulative = -5.577
ExecutionTime = 2.87 s  ClockTime = 3 s

Time = 38

smoothSolver:  Solving for Ux, Initial residual = 0.0104724, Final residual = 4.80342e-06, No Iterations 2
smoothSolver:  Solving for Uy, Initial residual = 0.0105291, Final residual = 4.85252e-06, No Iterations 2
smoothSolver:  Solving for Uz, Initial residual = 0.011745, Final residual = 5.20185e-06, No Iterations 2
GAMG:  Solving for p, Initial residual = 0.115834, Final residual = 0.0097, No Iterations 1
GAMG:  Solving for p, Initial residual = 0.0429653, Final residual = 0.00425249, No Iterations 1
GAMG:  Solving for p, Initial residual = 0.0194204, Final residual = 0.000853174, No Iterations 2
GAMG:  Solving for p, Initial residual = 0.0119139, Final residual = 0.000788109, No Iterations 1
GAMG:  Solving for p, Initial residual = 0.00490421, Final residual = 0.000215527, No Iterations 2
time step continuity errors : sum local = 0.0902723, global = -0.0146596, cumulative = -5.59166
ExecutionTime = 2.95 s  ClockTime = 3 s

Time = 39

smoothSolver:  Solving for Ux, Initial residual = 0.0102417, Final residual = 4.67284e-06, No Iterations 2
smoothSolver:  Solving for Uy, Initial residual = 0.010309, Final residual = 4.7351e-06, No Iterations 2
smoothSolver:  Solving for Uz, Initial residual = 0.0111562, Final residual = 4.95242e-06, No Iterations 2
GAMG:  Solving for p, Initial residual = 0.128102, Final residual = 0.0105086, No Iterations 1
GAMG:  Solving for p, Initial residual = 0.0334514, Final residual = 0.00153904, No Iterations 2
GAMG:  Solving for p, Initial residual = 0.0169407, Final residual = 0.00107713, No Iterations 1
GAMG:  Solving for p, Initial residual = 0.00625064, Final residual = 0.0002666, No Iterations 2
GAMG:  Solving for p, Initial residual = 0.00473066, Final residual = 0.000326372, No Iterations 1
time step continuity errors : sum local = 0.210703, global = -0.0534152, cumulative = -5.64508
ExecutionTime = 3.01 s  ClockTime = 3 s

Time = 40

smoothSolver:  Solving for Ux, Initial residual = 0.00998949, Final residual = 4.57178e-06, No Iterations 2
smoothSolver:  Solving for Uy, Initial residual = 0.0100632, Final residual = 4.63297e-06, No Iterations 2
smoothSolver:  Solving for Uz, Initial residual = 0.0105709, Final residual = 4.71836e-06, No Iterations 2
GAMG:  Solving for p, Initial residual = 0.10738, Final residual = 0.0088111, No Iterations 1
GAMG:  Solving for p, Initial residual = 0.0260885, Final residual = 0.00123038, No Iterations 2
GAMG:  Solving for p, Initial residual = 0.0146421, Final residual = 0.000934108, No Iterations 1
GAMG:  Solving for p, Initial residual = 0.00549061, Final residual = 0.000235066, No Iterations 2
GAMG:  Solving for p, Initial residual = 0.00427805, Final residual = 0.000293794, No Iterations 1
time step continuity errors : sum local = 0.229272, global = -0.0576084, cumulative = -5.70268
ExecutionTime = 3.09 s  ClockTime = 3 s

Time = 41

smoothSolver:  Solving for Ux, Initial residual = 0.00976593, Final residual = 4.48631e-06, No Iterations 2
smoothSolver:  Solving for Uy, Initial residual = 0.00983457, Final residual = 4.53398e-06, No Iterations 2
smoothSolver:  Solving for Uz, Initial residual = 0.0103007, Final residual = 4.61684e-06, No Iterations 2
GAMG:  Solving for p, Initial residual = 0.0824042, Final residual = 0.00643835, No Iterations 1
GAMG:  Solving for p, Initial residual = 0.0215343, Final residual = 0.0010171, No Iterations 2
GAMG:  Solving for p, Initial residual = 0.0129375, Final residual = 0.000834598, No Iterations 1
GAMG:  Solving for p, Initial residual = 0.00498089, Final residual = 0.000214039, No Iterations 2
GAMG:  Solving for p, Initial residual = 0.00393515, Final residual = 0.000271964, No Iterations 1
time step continuity errors : sum local = 0.224923, global = -0.054931, cumulative = -5.75762
ExecutionTime = 3.16 s  ClockTime = 3 s

Time = 42

smoothSolver:  Solving for Ux, Initial residual = 0.00956851, Final residual = 4.41372e-06, No Iterations 2
smoothSolver:  Solving for Uy, Initial residual = 0.00963856, Final residual = 4.44783e-06, No Iterations 2
smoothSolver:  Solving for Uz, Initial residual = 0.0103189, Final residual = 4.59974e-06, No Iterations 2
GAMG:  Solving for p, Initial residual = 0.0677226, Final residual = 0.00497453, No Iterations 1
GAMG:  Solving for p, Initial residual = 0.018749, Final residual = 0.000845514, No Iterations 2
GAMG:  Solving for p, Initial residual = 0.0113793, Final residual = 0.000748642, No Iterations 1
GAMG:  Solving for p, Initial residual = 0.00453632, Final residual = 0.000195916, No Iterations 2
GAMG:  Solving for p, Initial residual = 0.00361922, Final residual = 0.000253494, No Iterations 1
time step continuity errors : sum local = 0.200148, global = -0.0459515, cumulative = -5.80357
ExecutionTime = 3.23 s  ClockTime = 3 s

Time = 43

smoothSolver:  Solving for Ux, Initial residual = 0.00937655, Final residual = 4.31727e-06, No Iterations 2
smoothSolver:  Solving for Uy, Initial residual = 0.00947024, Final residual = 4.3556e-06, No Iterations 2
smoothSolver:  Solving for Uz, Initial residual = 0.0104035, Final residual = 4.60447e-06, No Iterations 2
GAMG:  Solving for p, Initial residual = 0.0598416, Final residual = 0.00435344, No Iterations 1
GAMG:  Solving for p, Initial residual = 0.0173722, Final residual = 0.00161613, No Iterations 1
GAMG:  Solving for p, Initial residual = 0.00795797, Final residual = 0.000356792, No Iterations 2
GAMG:  Solving for p, Initial residual = 0.00577955, Final residual = 0.000397595, No Iterations 1
GAMG:  Solving for p, Initial residual = 0.00259538, Final residual = 0.000116719, No Iterations 2
time step continuity errors : sum local = 0.0803257, global = -0.0109205, cumulative = -5.81449
ExecutionTime = 3.31 s  ClockTime = 4 s

Time = 44

smoothSolver:  Solving for Ux, Initial residual = 0.00917933, Final residual = 4.21975e-06, No Iterations 2
smoothSolver:  Solving for Uy, Initial residual = 0.00930973, Final residual = 4.28378e-06, No Iterations 2
smoothSolver:  Solving for Uz, Initial residual = 0.0103723, Final residual = 4.5681e-06, No Iterations 2
GAMG:  Solving for p, Initial residual = 0.0561308, Final residual = 0.00398403, No Iterations 1
GAMG:  Solving for p, Initial residual = 0.0167189, Final residual = 0.00153826, No Iterations 1
GAMG:  Solving for p, Initial residual = 0.00715769, Final residual = 0.000254848, No Iterations 2
GAMG:  Solving for p, Initial residual = 0.00459366, Final residual = 0.00033879, No Iterations 1
GAMG:  Solving for p, Initial residual = 0.00224386, Final residual = 8.56787e-05, No Iterations 2
time step continuity errors : sum local = 0.0507234, global = -0.00605343, cumulative = -5.82054
ExecutionTime = 3.38 s  ClockTime = 4 s

Time = 45

smoothSolver:  Solving for Ux, Initial residual = 0.00898705, Final residual = 4.10609e-06, No Iterations 2
smoothSolver:  Solving for Uy, Initial residual = 0.0091552, Final residual = 4.19592e-06, No Iterations 2
smoothSolver:  Solving for Uz, Initial residual = 0.0101738, Final residual = 4.47197e-06, No Iterations 2
GAMG:  Solving for p, Initial residual = 0.0553887, Final residual = 0.00380565, No Iterations 1
GAMG:  Solving for p, Initial residual = 0.0168184, Final residual = 0.00147007, No Iterations 1
GAMG:  Solving for p, Initial residual = 0.00796474, Final residual = 0.000335162, No Iterations 2
GAMG:  Solving for p, Initial residual = 0.0062705, Final residual = 0.0004209, No Iterations 1
GAMG:  Solving for p, Initial residual = 0.00272753, Final residual = 0.000114432, No Iterations 2
time step continuity errors : sum local = 0.0580505, global = 0.0112347, cumulative = -5.80931
ExecutionTime = 3.45 s  ClockTime = 4 s

Time = 46

smoothSolver:  Solving for Ux, Initial residual = 0.00880804, Final residual = 4.01923e-06, No Iterations 2
smoothSolver:  Solving for Uy, Initial residual = 0.00902171, Final residual = 4.11602e-06, No Iterations 2
smoothSolver:  Solving for Uz, Initial residual = 0.00988094, Final residual = 4.36092e-06, No Iterations 2
GAMG:  Solving for p, Initial residual = 0.0565758, Final residual = 0.00381499, No Iterations 1
GAMG:  Solving for p, Initial residual = 0.0176464, Final residual = 0.00163741, No Iterations 1
GAMG:  Solving for p, Initial residual = 0.0100164, Final residual = 0.000995671, No Iterations 1
GAMG:  Solving for p, Initial residual = 0.00641705, Final residual = 0.000641127, No Iterations 1
GAMG:  Solving for p, Initial residual = 0.00412511, Final residual = 0.000181858, No Iterations 2
time step continuity errors : sum local = 0.0792513, global = 0.0123513, cumulative = -5.79696
ExecutionTime = 3.52 s  ClockTime = 4 s

Time = 47

smoothSolver:  Solving for Ux, Initial residual = 0.0086428, Final residual = 3.90605e-06, No Iterations 2
smoothSolver:  Solving for Uy, Initial residual = 0.00890209, Final residual = 4.05063e-06, No Iterations 2
smoothSolver:  Solving for Uz, Initial residual = 0.00956492, Final residual = 4.24353e-06, No Iterations 2
GAMG:  Solving for p, Initial residual = 0.0587059, Final residual = 0.00392967, No Iterations 1
GAMG:  Solving for p, Initial residual = 0.0184011, Final residual = 0.00176889, No Iterations 1
GAMG:  Solving for p, Initial residual = 0.0112115, Final residual = 0.00110144, No Iterations 1
GAMG:  Solving for p, Initial residual = 0.00726248, Final residual = 0.000725852, No Iterations 1
GAMG:  Solving for p, Initial residual = 0.00476417, Final residual = 0.000207608, No Iterations 2
time step continuity errors : sum local = 0.080855, global = 0.0119497, cumulative = -5.78501
ExecutionTime = 3.59 s  ClockTime = 4 s

Time = 48

smoothSolver:  Solving for Ux, Initial residual = 0.00850075, Final residual = 3.8079e-06, No Iterations 2
smoothSolver:  Solving for Uy, Initial residual = 0.00880181, Final residual = 3.99195e-06, No Iterations 2
smoothSolver:  Solving for Uz, Initial residual = 0.00930691, Final residual = 4.13025e-06, No Iterations 2
GAMG:  Solving for p, Initial residual = 0.061573, Final residual = 0.0040901, No Iterations 1
GAMG:  Solving for p, Initial residual = 0.0187097, Final residual = 0.00175297, No Iterations 1
GAMG:  Solving for p, Initial residual = 0.0108211, Final residual = 0.00107414, No Iterations 1
GAMG:  Solving for p, Initial residual = 0.00708244, Final residual = 0.000707794, No Iterations 1
GAMG:  Solving for p, Initial residual = 0.00465016, Final residual = 0.000204204, No Iterations 2
time step continuity errors : sum local = 0.0771629, global = 0.01114, cumulative = -5.77387
ExecutionTime = 3.66 s  ClockTime = 4 s

Time = 49

smoothSolver:  Solving for Ux, Initial residual = 0.00837697, Final residual = 3.73975e-06, No Iterations 2
smoothSolver:  Solving for Uy, Initial residual = 0.00869172, Final residual = 3.92661e-06, No Iterations 2
smoothSolver:  Solving for Uz, Initial residual = 0.00911567, Final residual = 4.03115e-06, No Iterations 2
GAMG:  Solving for p, Initial residual = 0.0645076, Final residual = 0.00426683, No Iterations 1
GAMG:  Solving for p, Initial residual = 0.01886, Final residual = 0.00165903, No Iterations 1
GAMG:  Solving for p, Initial residual = 0.00925333, Final residual = 0.000383793, No Iterations 2
GAMG:  Solving for p, Initial residual = 0.00765469, Final residual = 0.000519006, No Iterations 1
GAMG:  Solving for p, Initial residual = 0.00343128, Final residual = 0.000145871, No Iterations 2
time step continuity errors : sum local = 0.0567121, global = 0.00907651, cumulative = -5.76479
ExecutionTime = 3.73 s  ClockTime = 4 s

Time = 50

smoothSolver:  Solving for Ux, Initial residual = 0.00825631, Final residual = 3.67461e-06, No Iterations 2
smoothSolver:  Solving for Uy, Initial residual = 0.00857558, Final residual = 3.87189e-06, No Iterations 2
smoothSolver:  Solving for Uz, Initial residual = 0.00897798, Final residual = 3.95413e-06, No Iterations 2
GAMG:  Solving for p, Initial residual = 0.0666046, Final residual = 0.00436382, No Iterations 1
GAMG:  Solving for p, Initial residual = 0.0189399, Final residual = 0.00167977, No Iterations 1
GAMG:  Solving for p, Initial residual = 0.00801167, Final residual = 0.000307696, No Iterations 2
GAMG:  Solving for p, Initial residual = 0.00552423, Final residual = 0.000400614, No Iterations 1
GAMG:  Solving for p, Initial residual = 0.00263737, Final residual = 0.00011179, No Iterations 2
time step continuity errors : sum local = 0.0476431, global = 0.00776278, cumulative = -5.75703
ExecutionTime = 3.8 s  ClockTime = 4 s

Time = 51

smoothSolver:  Solving for Ux, Initial residual = 0.00812358, Final residual = 3.60577e-06, No Iterations 2
smoothSolver:  Solving for Uy, Initial residual = 0.00844237, Final residual = 3.78156e-06, No Iterations 2
smoothSolver:  Solving for Uz, Initial residual = 0.0088502, Final residual = 3.87883e-06, No Iterations 2
GAMG:  Solving for p, Initial residual = 0.0668537, Final residual = 0.00433204, No Iterations 1
GAMG:  Solving for p, Initial residual = 0.0187345, Final residual = 0.00164413, No Iterations 1
GAMG:  Solving for p, Initial residual = 0.00766648, Final residual = 0.000271401, No Iterations 2
GAMG:  Solving for p, Initial residual = 0.0044194, Final residual = 0.000338804, No Iterations 1
GAMG:  Solving for p, Initial residual = 0.0021919, Final residual = 8.19792e-05, No Iterations 2
time step continuity errors : sum local = 0.037693, global = -0.0101376, cumulative = -5.76716
ExecutionTime = 3.88 s  ClockTime = 4 s

Time = 52

smoothSolver:  Solving for Ux, Initial residual = 0.00798673, Final residual = 3.55801e-06, No Iterations 2
smoothSolver:  Solving for Uy, Initial residual = 0.00831354, Final residual = 3.70798e-06, No Iterations 2
smoothSolver:  Solving for Uz, Initial residual = 0.00872827, Final residual = 3.80633e-06, No Iterations 2
GAMG:  Solving for p, Initial residual = 0.065511, Final residual = 0.00422823, No Iterations 1
GAMG:  Solving for p, Initial residual = 0.0181759, Final residual = 0.00154851, No Iterations 1
GAMG:  Solving for p, Initial residual = 0.00740372, Final residual = 0.000316454, No Iterations 2
GAMG:  Solving for p, Initial residual = 0.00485406, Final residual = 0.000329568, No Iterations 1
GAMG:  Solving for p, Initial residual = 0.00217247, Final residual = 9.58209e-05, No Iterations 2
time step continuity errors : sum local = 0.0477314, global = -0.00873649, cumulative = -5.7759
ExecutionTime = 3.94 s  ClockTime = 4 s

Time = 53

smoothSolver:  Solving for Ux, Initial residual = 0.00785353, Final residual = 3.5015e-06, No Iterations 2
smoothSolver:  Solving for Uy, Initial residual = 0.0081944, Final residual = 3.62849e-06, No Iterations 2
smoothSolver:  Solving for Uz, Initial residual = 0.0086143, Final residual = 3.73965e-06, No Iterations 2
GAMG:  Solving for p, Initial residual = 0.0630859, Final residual = 0.00405411, No Iterations 1
GAMG:  Solving for p, Initial residual = 0.017333, Final residual = 0.00147829, No Iterations 1
GAMG:  Solving for p, Initial residual = 0.00718124, Final residual = 0.000336233, No Iterations 2
GAMG:  Solving for p, Initial residual = 0.00508316, Final residual = 0.00033909, No Iterations 1
GAMG:  Solving for p, Initial residual = 0.00220233, Final residual = 0.0001001, No Iterations 2
time step continuity errors : sum local = 0.0533388, global = -0.00848425, cumulative = -5.78438
ExecutionTime = 4.01 s  ClockTime = 4 s

Time = 54

smoothSolver:  Solving for Ux, Initial residual = 0.00772427, Final residual = 3.45321e-06, No Iterations 2
smoothSolver:  Solving for Uy, Initial residual = 0.00807836, Final residual = 3.54379e-06, No Iterations 2
smoothSolver:  Solving for Uz, Initial residual = 0.00851208, Final residual = 3.68595e-06, No Iterations 2
GAMG:  Solving for p, Initial residual = 0.0599364, Final residual = 0.00385469, No Iterations 1
GAMG:  Solving for p, Initial residual = 0.0164679, Final residual = 0.0014103, No Iterations 1
GAMG:  Solving for p, Initial residual = 0.00688325, Final residual = 0.000328064, No Iterations 2
GAMG:  Solving for p, Initial residual = 0.00499177, Final residual = 0.000331943, No Iterations 1
GAMG:  Solving for p, Initial residual = 0.00216028, Final residual = 9.84006e-05, No Iterations 2
time step continuity errors : sum local = 0.0546676, global = -0.00818818, cumulative = -5.79257
ExecutionTime = 4.09 s  ClockTime = 4 s

Time = 55

smoothSolver:  Solving for Ux, Initial residual = 0.0075935, Final residual = 3.39511e-06, No Iterations 2
smoothSolver:  Solving for Uy, Initial residual = 0.00796574, Final residual = 3.47167e-06, No Iterations 2
smoothSolver:  Solving for Uz, Initial residual = 0.00841915, Final residual = 3.62331e-06, No Iterations 2
GAMG:  Solving for p, Initial residual = 0.0571374, Final residual = 0.00366989, No Iterations 1
GAMG:  Solving for p, Initial residual = 0.0158152, Final residual = 0.00134384, No Iterations 1
GAMG:  Solving for p, Initial residual = 0.006518, Final residual = 0.000309255, No Iterations 2
GAMG:  Solving for p, Initial residual = 0.00469013, Final residual = 0.000314386, No Iterations 1
GAMG:  Solving for p, Initial residual = 0.00205984, Final residual = 9.37598e-05, No Iterations 2
time step continuity errors : sum local = 0.052699, global = -0.00753331, cumulative = -5.80011
ExecutionTime = 4.16 s  ClockTime = 4 s

Time = 56

smoothSolver:  Solving for Ux, Initial residual = 0.00746199, Final residual = 3.32629e-06, No Iterations 2
smoothSolver:  Solving for Uy, Initial residual = 0.00785234, Final residual = 3.41715e-06, No Iterations 2
smoothSolver:  Solving for Uz, Initial residual = 0.00833261, Final residual = 3.57308e-06, No Iterations 2
GAMG:  Solving for p, Initial residual = 0.054814, Final residual = 0.00350322, No Iterations 1
GAMG:  Solving for p, Initial residual = 0.0153153, Final residual = 0.00129064, No Iterations 1
GAMG:  Solving for p, Initial residual = 0.00619616, Final residual = 0.000274027, No Iterations 2
GAMG:  Solving for p, Initial residual = 0.00419093, Final residual = 0.000283885, No Iterations 1
GAMG:  Solving for p, Initial residual = 0.00190454, Final residual = 0.000188818, No Iterations 1
time step continuity errors : sum local = 0.105124, global = -0.0247675, cumulative = -5.82487
ExecutionTime = 4.24 s  ClockTime = 4 s

Time = 57

smoothSolver:  Solving for Ux, Initial residual = 0.0073369, Final residual = 3.27097e-06, No Iterations 2
smoothSolver:  Solving for Uy, Initial residual = 0.00774931, Final residual = 3.36751e-06, No Iterations 2
smoothSolver:  Solving for Uz, Initial residual = 0.00824599, Final residual = 3.51469e-06, No Iterations 2
GAMG:  Solving for p, Initial residual = 0.0532266, Final residual = 0.00338311, No Iterations 1
GAMG:  Solving for p, Initial residual = 0.0149482, Final residual = 0.00125768, No Iterations 1
GAMG:  Solving for p, Initial residual = 0.00602697, Final residual = 0.000598404, No Iterations 1
GAMG:  Solving for p, Initial residual = 0.0031764, Final residual = 0.000145178, No Iterations 2
GAMG:  Solving for p, Initial residual = 0.00238849, Final residual = 0.000165858, No Iterations 1
time step continuity errors : sum local = 0.0905634, global = -0.0176488, cumulative = -5.84252
ExecutionTime = 4.3 s  ClockTime = 5 s

Time = 58

smoothSolver:  Solving for Ux, Initial residual = 0.0072183, Final residual = 3.22441e-06, No Iterations 2
smoothSolver:  Solving for Uy, Initial residual = 0.00764827, Final residual = 3.33508e-06, No Iterations 2
smoothSolver:  Solving for Uz, Initial residual = 0.00814976, Final residual = 3.47423e-06, No Iterations 2
GAMG:  Solving for p, Initial residual = 0.0523834, Final residual = 0.00333481, No Iterations 1
GAMG:  Solving for p, Initial residual = 0.0147837, Final residual = 0.00123617, No Iterations 1
GAMG:  Solving for p, Initial residual = 0.00598226, Final residual = 0.000194495, No Iterations 2
GAMG:  Solving for p, Initial residual = 0.00340606, Final residual = 0.000243326, No Iterations 1
GAMG:  Solving for p, Initial residual = 0.00168425, Final residual = 0.000165458, No Iterations 1
time step continuity errors : sum local = 0.0877425, global = -0.0101649, cumulative = -5.85269
ExecutionTime = 4.37 s  ClockTime = 5 s

Time = 59

smoothSolver:  Solving for Ux, Initial residual = 0.00710249, Final residual = 3.1773e-06, No Iterations 2
smoothSolver:  Solving for Uy, Initial residual = 0.00754972, Final residual = 3.30551e-06, No Iterations 2
smoothSolver:  Solving for Uz, Initial residual = 0.00804348, Final residual = 3.42756e-06, No Iterations 2
GAMG:  Solving for p, Initial residual = 0.0516123, Final residual = 0.00331622, No Iterations 1
GAMG:  Solving for p, Initial residual = 0.0146505, Final residual = 0.00123194, No Iterations 1
GAMG:  Solving for p, Initial residual = 0.00598203, Final residual = 0.000205206, No Iterations 2
GAMG:  Solving for p, Initial residual = 0.00355394, Final residual = 0.000253213, No Iterations 1
GAMG:  Solving for p, Initial residual = 0.00172516, Final residual = 6.19929e-05, No Iterations 2
time step continuity errors : sum local = 0.0323729, global = 0.0056542, cumulative = -5.84703
ExecutionTime = 4.45 s  ClockTime = 5 s

Time = 60

smoothSolver:  Solving for Ux, Initial residual = 0.00699197, Final residual = 3.13581e-06, No Iterations 2
smoothSolver:  Solving for Uy, Initial residual = 0.00745379, Final residual = 3.26313e-06, No Iterations 2
smoothSolver:  Solving for Uz, Initial residual = 0.00793002, Final residual = 3.37575e-06, No Iterations 2
GAMG:  Solving for p, Initial residual = 0.0512287, Final residual = 0.003309, No Iterations 1
GAMG:  Solving for p, Initial residual = 0.0145946, Final residual = 0.00124177, No Iterations 1
GAMG:  Solving for p, Initial residual = 0.00601702, Final residual = 0.000218539, No Iterations 2
GAMG:  Solving for p, Initial residual = 0.00381948, Final residual = 0.000266071, No Iterations 1
GAMG:  Solving for p, Initial residual = 0.00180237, Final residual = 0.000178873, No Iterations 1
time step continuity errors : sum local = 0.0915846, global = 0.017392, cumulative = -5.82964
ExecutionTime = 4.51 s  ClockTime = 5 s

Time = 61

smoothSolver:  Solving for Ux, Initial residual = 0.00688146, Final residual = 3.09053e-06, No Iterations 2
smoothSolver:  Solving for Uy, Initial residual = 0.0073562, Final residual = 3.22002e-06, No Iterations 2
smoothSolver:  Solving for Uz, Initial residual = 0.00781649, Final residual = 3.31683e-06, No Iterations 2
GAMG:  Solving for p, Initial residual = 0.0513139, Final residual = 0.00333061, No Iterations 1
GAMG:  Solving for p, Initial residual = 0.0146399, Final residual = 0.00126599, No Iterations 1
GAMG:  Solving for p, Initial residual = 0.00607484, Final residual = 0.000227192, No Iterations 2
GAMG:  Solving for p, Initial residual = 0.0039963, Final residual = 0.00027824, No Iterations 1
GAMG:  Solving for p, Initial residual = 0.00186036, Final residual = 0.000185191, No Iterations 1
time step continuity errors : sum local = 0.0934086, global = 0.0186612, cumulative = -5.81098
ExecutionTime = 4.59 s  ClockTime = 5 s

Time = 62

smoothSolver:  Solving for Ux, Initial residual = 0.00677649, Final residual = 3.03892e-06, No Iterations 2
smoothSolver:  Solving for Uy, Initial residual = 0.00726552, Final residual = 3.1708e-06, No Iterations 2
smoothSolver:  Solving for Uz, Initial residual = 0.00770664, Final residual = 3.27847e-06, No Iterations 2
GAMG:  Solving for p, Initial residual = 0.051418, Final residual = 0.0033183, No Iterations 1
GAMG:  Solving for p, Initial residual = 0.0146918, Final residual = 0.00127575, No Iterations 1
GAMG:  Solving for p, Initial residual = 0.00608796, Final residual = 0.000227142, No Iterations 2
GAMG:  Solving for p, Initial residual = 0.00397828, Final residual = 0.000279951, No Iterations 1
GAMG:  Solving for p, Initial residual = 0.00186342, Final residual = 7.21731e-05, No Iterations 2
time step continuity errors : sum local = 0.0361707, global = 0.00611146, cumulative = -5.80487
ExecutionTime = 4.66 s  ClockTime = 5 s

Time = 63

smoothSolver:  Solving for Ux, Initial residual = 0.00667749, Final residual = 2.98034e-06, No Iterations 2
smoothSolver:  Solving for Uy, Initial residual = 0.007184, Final residual = 3.12514e-06, No Iterations 2
smoothSolver:  Solving for Uz, Initial residual = 0.00759565, Final residual = 3.22563e-06, No Iterations 2
GAMG:  Solving for p, Initial residual = 0.0516144, Final residual = 0.00329062, No Iterations 1
GAMG:  Solving for p, Initial residual = 0.0147201, Final residual = 0.00127064, No Iterations 1
GAMG:  Solving for p, Initial residual = 0.00605117, Final residual = 0.000216751, No Iterations 2
GAMG:  Solving for p, Initial residual = 0.0037587, Final residual = 0.000271184, No Iterations 1
GAMG:  Solving for p, Initial residual = 0.00180383, Final residual = 6.92627e-05, No Iterations 2
time step continuity errors : sum local = 0.0348709, global = 0.00570621, cumulative = -5.79916
ExecutionTime = 4.72 s  ClockTime = 5 s

Time = 64

smoothSolver:  Solving for Ux, Initial residual = 0.00657369, Final residual = 2.93475e-06, No Iterations 2
smoothSolver:  Solving for Uy, Initial residual = 0.00710352, Final residual = 3.08623e-06, No Iterations 2
smoothSolver:  Solving for Uz, Initial residual = 0.00748854, Final residual = 3.18993e-06, No Iterations 2
GAMG:  Solving for p, Initial residual = 0.0514768, Final residual = 0.00322657, No Iterations 1
GAMG:  Solving for p, Initial residual = 0.0145629, Final residual = 0.00124698, No Iterations 1
GAMG:  Solving for p, Initial residual = 0.00594394, Final residual = 0.000207395, No Iterations 2
GAMG:  Solving for p, Initial residual = 0.00347315, Final residual = 0.000260052, No Iterations 1
GAMG:  Solving for p, Initial residual = 0.00171217, Final residual = 6.39611e-05, No Iterations 2
time step continuity errors : sum local = 0.0327089, global = 0.00462679, cumulative = -5.79454
ExecutionTime = 4.79 s  ClockTime = 5 s

Time = 65

smoothSolver:  Solving for Ux, Initial residual = 0.00647584, Final residual = 2.88931e-06, No Iterations 2
smoothSolver:  Solving for Uy, Initial residual = 0.00701124, Final residual = 3.04004e-06, No Iterations 2
smoothSolver:  Solving for Uz, Initial residual = 0.00737366, Final residual = 3.12559e-06, No Iterations 2
GAMG:  Solving for p, Initial residual = 0.0510353, Final residual = 0.00317242, No Iterations 1
GAMG:  Solving for p, Initial residual = 0.0143421, Final residual = 0.00121851, No Iterations 1
GAMG:  Solving for p, Initial residual = 0.00583567, Final residual = 0.000202728, No Iterations 2
GAMG:  Solving for p, Initial residual = 0.00331035, Final residual = 0.000250762, No Iterations 1
GAMG:  Solving for p, Initial residual = 0.00164559, Final residual = 5.9912e-05, No Iterations 2
time step continuity errors : sum local = 0.0310537, global = -0.00258237, cumulative = -5.79712
ExecutionTime = 4.87 s  ClockTime = 5 s

Time = 66

smoothSolver:  Solving for Ux, Initial residual = 0.00637711, Final residual = 2.84911e-06, No Iterations 2
smoothSolver:  Solving for Uy, Initial residual = 0.00692112, Final residual = 2.99594e-06, No Iterations 2
smoothSolver:  Solving for Uz, Initial residual = 0.0072621, Final residual = 3.06513e-06, No Iterations 2
GAMG:  Solving for p, Initial residual = 0.0503252, Final residual = 0.00311708, No Iterations 1
GAMG:  Solving for p, Initial residual = 0.0140856, Final residual = 0.00118984, No Iterations 1
GAMG:  Solving for p, Initial residual = 0.00571949, Final residual = 0.000190562, No Iterations 2
GAMG:  Solving for p, Initial residual = 0.00324075, Final residual = 0.000239671, No Iterations 1
GAMG:  Solving for p, Initial residual = 0.00159525, Final residual = 5.56302e-05, No Iterations 2
time step continuity errors : sum local = 0.029289, global = -0.00980455, cumulative = -5.80692
ExecutionTime = 4.94 s  ClockTime = 5 s

Time = 67

smoothSolver:  Solving for Ux, Initial residual = 0.00628971, Final residual = 2.82136e-06, No Iterations 2
smoothSolver:  Solving for Uy, Initial residual = 0.00682987, Final residual = 2.95927e-06, No Iterations 2
smoothSolver:  Solving for Uz, Initial residual = 0.00715361, Final residual = 3.00267e-06, No Iterations 2
GAMG:  Solving for p, Initial residual = 0.0496608, Final residual = 0.00306702, No Iterations 1
GAMG:  Solving for p, Initial residual = 0.0138623, Final residual = 0.00116251, No Iterations 1
GAMG:  Solving for p, Initial residual = 0.00561532, Final residual = 0.000184864, No Iterations 2
GAMG:  Solving for p, Initial residual = 0.00323484, Final residual = 0.000233709, No Iterations 1
GAMG:  Solving for p, Initial residual = 0.00156771, Final residual = 6.06457e-05, No Iterations 2
time step continuity errors : sum local = 0.0324246, global = -0.00769053, cumulative = -5.81461
ExecutionTime = 5.02 s  ClockTime = 5 s

Time = 68

smoothSolver:  Solving for Ux, Initial residual = 0.00620295, Final residual = 2.80196e-06, No Iterations 2
smoothSolver:  Solving for Uy, Initial residual = 0.00674718, Final residual = 2.93294e-06, No Iterations 2
smoothSolver:  Solving for Uz, Initial residual = 0.0070477, Final residual = 2.94878e-06, No Iterations 2
GAMG:  Solving for p, Initial residual = 0.0488411, Final residual = 0.0030003, No Iterations 1
GAMG:  Solving for p, Initial residual = 0.013643, Final residual = 0.00113783, No Iterations 1
GAMG:  Solving for p, Initial residual = 0.00549399, Final residual = 0.000185237, No Iterations 2
GAMG:  Solving for p, Initial residual = 0.00322339, Final residual = 0.000230863, No Iterations 1
GAMG:  Solving for p, Initial residual = 0.00154322, Final residual = 6.21974e-05, No Iterations 2
time step continuity errors : sum local = 0.0338363, global = -0.00664266, cumulative = -5.82126
ExecutionTime = 5.08 s  ClockTime = 5 s

Time = 69

smoothSolver:  Solving for Ux, Initial residual = 0.0061222, Final residual = 2.77984e-06, No Iterations 2
smoothSolver:  Solving for Uy, Initial residual = 0.00666415, Final residual = 2.90092e-06, No Iterations 2
smoothSolver:  Solving for Uz, Initial residual = 0.00694544, Final residual = 2.91678e-06, No Iterations 2
GAMG:  Solving for p, Initial residual = 0.048028, Final residual = 0.00294645, No Iterations 1
GAMG:  Solving for p, Initial residual = 0.0133721, Final residual = 0.00111869, No Iterations 1
GAMG:  Solving for p, Initial residual = 0.00540392, Final residual = 0.000183289, No Iterations 2
GAMG:  Solving for p, Initial residual = 0.00316898, Final residual = 0.000227754, No Iterations 1
GAMG:  Solving for p, Initial residual = 0.00152003, Final residual = 6.23779e-05, No Iterations 2
time step continuity errors : sum local = 0.0342565, global = -0.00623863, cumulative = -5.82749
ExecutionTime = 5.16 s  ClockTime = 5 s

Time = 70

smoothSolver:  Solving for Ux, Initial residual = 0.00604202, Final residual = 2.74924e-06, No Iterations 2
smoothSolver:  Solving for Uy, Initial residual = 0.00658013, Final residual = 2.86513e-06, No Iterations 2
smoothSolver:  Solving for Uz, Initial residual = 0.00685565, Final residual = 2.87713e-06, No Iterations 2
GAMG:  Solving for p, Initial residual = 0.0470892, Final residual = 0.00287606, No Iterations 1
GAMG:  Solving for p, Initial residual = 0.0131031, Final residual = 0.00109858, No Iterations 1
GAMG:  Solving for p, Initial residual = 0.00533083, Final residual = 0.000176065, No Iterations 2
GAMG:  Solving for p, Initial residual = 0.00306408, Final residual = 0.000221939, No Iterations 1
GAMG:  Solving for p, Initial residual = 0.00148896, Final residual = 5.94779e-05, No Iterations 2
time step continuity errors : sum local = 0.0328897, global = -0.00643631, cumulative = -5.83393
ExecutionTime = 5.23 s  ClockTime = 5 s

Time = 71

smoothSolver:  Solving for Ux, Initial residual = 0.00596095, Final residual = 2.69887e-06, No Iterations 2
smoothSolver:  Solving for Uy, Initial residual = 0.00649369, Final residual = 2.84124e-06, No Iterations 2
smoothSolver:  Solving for Uz, Initial residual = 0.00676682, Final residual = 2.84033e-06, No Iterations 2
GAMG:  Solving for p, Initial residual = 0.046293, Final residual = 0.00283025, No Iterations 1
GAMG:  Solving for p, Initial residual = 0.0128856, Final residual = 0.00108092, No Iterations 1
GAMG:  Solving for p, Initial residual = 0.00526418, Final residual = 0.000524221, No Iterations 1
GAMG:  Solving for p, Initial residual = 0.00269812, Final residual = 0.000103299, No Iterations 2
GAMG:  Solving for p, Initial residual = 0.00180398, Final residual = 0.000135298, No Iterations 1
time step continuity errors : sum local = 0.0749671, global = -0.0160098, cumulative = -5.84994
ExecutionTime = 5.3 s  ClockTime = 6 s

Time = 72

smoothSolver:  Solving for Ux, Initial residual = 0.00588212, Final residual = 2.65004e-06, No Iterations 2
smoothSolver:  Solving for Uy, Initial residual = 0.00640945, Final residual = 2.80651e-06, No Iterations 2
smoothSolver:  Solving for Uz, Initial residual = 0.00668556, Final residual = 2.80319e-06, No Iterations 2
GAMG:  Solving for p, Initial residual = 0.0454075, Final residual = 0.0027744, No Iterations 1
GAMG:  Solving for p, Initial residual = 0.0126843, Final residual = 0.00105964, No Iterations 1
GAMG:  Solving for p, Initial residual = 0.00519552, Final residual = 0.000512613, No Iterations 1
GAMG:  Solving for p, Initial residual = 0.00266678, Final residual = 9.80083e-05, No Iterations 2
GAMG:  Solving for p, Initial residual = 0.00173495, Final residual = 0.000131319, No Iterations 1
time step continuity errors : sum local = 0.0728842, global = -0.0148159, cumulative = -5.86476
ExecutionTime = 5.36 s  ClockTime = 6 s

Time = 73

smoothSolver:  Solving for Ux, Initial residual = 0.00580399, Final residual = 2.60242e-06, No Iterations 2
smoothSolver:  Solving for Uy, Initial residual = 0.00632515, Final residual = 2.76978e-06, No Iterations 2
smoothSolver:  Solving for Uz, Initial residual = 0.00660038, Final residual = 2.76155e-06, No Iterations 2
GAMG:  Solving for p, Initial residual = 0.0448368, Final residual = 0.00272669, No Iterations 1
GAMG:  Solving for p, Initial residual = 0.0125493, Final residual = 0.00104167, No Iterations 1
GAMG:  Solving for p, Initial residual = 0.00513517, Final residual = 0.000506206, No Iterations 1
GAMG:  Solving for p, Initial residual = 0.00264941, Final residual = 9.78461e-05, No Iterations 2
GAMG:  Solving for p, Initial residual = 0.00171607, Final residual = 0.000130905, No Iterations 1
time step continuity errors : sum local = 0.0725787, global = -0.0108126, cumulative = -5.87557
ExecutionTime = 5.44 s  ClockTime = 6 s

Time = 74

smoothSolver:  Solving for Ux, Initial residual = 0.00572635, Final residual = 2.55416e-06, No Iterations 2
smoothSolver:  Solving for Uy, Initial residual = 0.00623546, Final residual = 2.72621e-06, No Iterations 2
smoothSolver:  Solving for Uz, Initial residual = 0.00651028, Final residual = 2.70095e-06, No Iterations 2
GAMG:  Solving for p, Initial residual = 0.0441921, Final residual = 0.00268116, No Iterations 1
GAMG:  Solving for p, Initial residual = 0.0124205, Final residual = 0.00102825, No Iterations 1
GAMG:  Solving for p, Initial residual = 0.00509015, Final residual = 0.00050426, No Iterations 1
GAMG:  Solving for p, Initial residual = 0.00263688, Final residual = 9.93619e-05, No Iterations 2
GAMG:  Solving for p, Initial residual = 0.00172318, Final residual = 0.000132798, No Iterations 1
time step continuity errors : sum local = 0.0737872, global = -0.00527892, cumulative = -5.88085
ExecutionTime = 5.51 s  ClockTime = 6 s

Time = 75

smoothSolver:  Solving for Ux, Initial residual = 0.00564713, Final residual = 2.50858e-06, No Iterations 2
smoothSolver:  Solving for Uy, Initial residual = 0.00615835, Final residual = 2.6888e-06, No Iterations 2
smoothSolver:  Solving for Uz, Initial residual = 0.00641606, Final residual = 2.64526e-06, No Iterations 2
GAMG:  Solving for p, Initial residual = 0.0435339, Final residual = 0.00263977, No Iterations 1
GAMG:  Solving for p, Initial residual = 0.012333, Final residual = 0.00101863, No Iterations 1
GAMG:  Solving for p, Initial residual = 0.00504458, Final residual = 0.000504326, No Iterations 1
GAMG:  Solving for p, Initial residual = 0.00261805, Final residual = 0.000101115, No Iterations 2
GAMG:  Solving for p, Initial residual = 0.00173681, Final residual = 0.000134839, No Iterations 1
time step continuity errors : sum local = 0.0752747, global = -0.000787309, cumulative = -5.88164
ExecutionTime = 5.57 s  ClockTime = 6 s

Time = 76

smoothSolver:  Solving for Ux, Initial residual = 0.00557721, Final residual = 2.46174e-06, No Iterations 2
smoothSolver:  Solving for Uy, Initial residual = 0.00607859, Final residual = 2.65641e-06, No Iterations 2
smoothSolver:  Solving for Uz, Initial residual = 0.00633119, Final residual = 2.58547e-06, No Iterations 2
GAMG:  Solving for p, Initial residual = 0.0429213, Final residual = 0.00261886, No Iterations 1
GAMG:  Solving for p, Initial residual = 0.0122411, Final residual = 0.00101377, No Iterations 1
GAMG:  Solving for p, Initial residual = 0.00499275, Final residual = 0.000164468, No Iterations 2
GAMG:  Solving for p, Initial residual = 0.00284395, Final residual = 0.00021521, No Iterations 1
GAMG:  Solving for p, Initial residual = 0.00143246, Final residual = 5.18327e-05, No Iterations 2
time step continuity errors : sum local = 0.0289636, global = 0.0012916, cumulative = -5.88034
ExecutionTime = 5.65 s  ClockTime = 6 s

Time = 77

smoothSolver:  Solving for Ux, Initial residual = 0.00551238, Final residual = 2.44365e-06, No Iterations 2
smoothSolver:  Solving for Uy, Initial residual = 0.00599724, Final residual = 2.63121e-06, No Iterations 2
smoothSolver:  Solving for Uz, Initial residual = 0.00624758, Final residual = 2.56762e-06, No Iterations 2
GAMG:  Solving for p, Initial residual = 0.0423111, Final residual = 0.0025933, No Iterations 1
GAMG:  Solving for p, Initial residual = 0.0120996, Final residual = 0.00100018, No Iterations 1
GAMG:  Solving for p, Initial residual = 0.00493055, Final residual = 0.000160945, No Iterations 2
GAMG:  Solving for p, Initial residual = 0.0028027, Final residual = 0.000211947, No Iterations 1
GAMG:  Solving for p, Initial residual = 0.00141514, Final residual = 5.14622e-05, No Iterations 2
time step continuity errors : sum local = 0.0288221, global = 0.00143394, cumulative = -5.87891
ExecutionTime = 5.72 s  ClockTime = 6 s

Time = 78

smoothSolver:  Solving for Ux, Initial residual = 0.00545253, Final residual = 2.41132e-06, No Iterations 2
smoothSolver:  Solving for Uy, Initial residual = 0.00592554, Final residual = 2.60242e-06, No Iterations 2
smoothSolver:  Solving for Uz, Initial residual = 0.00616919, Final residual = 2.52316e-06, No Iterations 2
GAMG:  Solving for p, Initial residual = 0.041838, Final residual = 0.00258395, No Iterations 1
GAMG:  Solving for p, Initial residual = 0.0119663, Final residual = 0.000989369, No Iterations 1
GAMG:  Solving for p, Initial residual = 0.00489363, Final residual = 0.00015713, No Iterations 2
GAMG:  Solving for p, Initial residual = 0.00275565, Final residual = 0.0002077, No Iterations 1
GAMG:  Solving for p, Initial residual = 0.00140013, Final residual = 4.98092e-05, No Iterations 2
time step continuity errors : sum local = 0.0279697, global = 0.000694275, cumulative = -5.87822
ExecutionTime = 5.8 s  ClockTime = 6 s

Time = 79

smoothSolver:  Solving for Ux, Initial residual = 0.00539822, Final residual = 2.40176e-06, No Iterations 2
smoothSolver:  Solving for Uy, Initial residual = 0.00584948, Final residual = 2.5803e-06, No Iterations 2
smoothSolver:  Solving for Uz, Initial residual = 0.0060943, Final residual = 2.52541e-06, No Iterations 2
GAMG:  Solving for p, Initial residual = 0.0414182, Final residual = 0.00255493, No Iterations 1
GAMG:  Solving for p, Initial residual = 0.0118356, Final residual = 0.000974806, No Iterations 1
GAMG:  Solving for p, Initial residual = 0.00483977, Final residual = 0.000480529, No Iterations 1
GAMG:  Solving for p, Initial residual = 0.00250278, Final residual = 9.33469e-05, No Iterations 2
GAMG:  Solving for p, Initial residual = 0.00161803, Final residual = 0.000125962, No Iterations 1
time step continuity errors : sum local = 0.0709212, global = -0.00110471, cumulative = -5.87932
ExecutionTime = 5.86 s  ClockTime = 6 s

Time = 80

smoothSolver:  Solving for Ux, Initial residual = 0.00534233, Final residual = 2.37854e-06, No Iterations 2
smoothSolver:  Solving for Uy, Initial residual = 0.00578168, Final residual = 2.55626e-06, No Iterations 2
smoothSolver:  Solving for Uz, Initial residual = 0.00601521, Final residual = 2.48471e-06, No Iterations 2
GAMG:  Solving for p, Initial residual = 0.0410453, Final residual = 0.00252586, No Iterations 1
GAMG:  Solving for p, Initial residual = 0.0116732, Final residual = 0.000956328, No Iterations 1
GAMG:  Solving for p, Initial residual = 0.00477399, Final residual = 0.000465875, No Iterations 1
GAMG:  Solving for p, Initial residual = 0.00245076, Final residual = 8.81506e-05, No Iterations 2
GAMG:  Solving for p, Initial residual = 0.00155941, Final residual = 0.000119749, No Iterations 1
time step continuity errors : sum local = 0.0677044, global = -0.00387292, cumulative = -5.88319
ExecutionTime = 5.93 s  ClockTime = 6 s

Time = 81

smoothSolver:  Solving for Ux, Initial residual = 0.00528704, Final residual = 2.36178e-06, No Iterations 2
smoothSolver:  Solving for Uy, Initial residual = 0.0057202, Final residual = 2.53218e-06, No Iterations 2
smoothSolver:  Solving for Uz, Initial residual = 0.00594369, Final residual = 2.46245e-06, No Iterations 2
GAMG:  Solving for p, Initial residual = 0.0408366, Final residual = 0.00249202, No Iterations 1
GAMG:  Solving for p, Initial residual = 0.0115674, Final residual = 0.000932845, No Iterations 1
GAMG:  Solving for p, Initial residual = 0.0047105, Final residual = 0.000449355, No Iterations 1
GAMG:  Solving for p, Initial residual = 0.00239924, Final residual = 8.30409e-05, No Iterations 2
GAMG:  Solving for p, Initial residual = 0.00151465, Final residual = 0.000114246, No Iterations 1
time step continuity errors : sum local = 0.0649013, global = -0.0062629, cumulative = -5.88946
ExecutionTime = 6 s  ClockTime = 6 s

Time = 82

smoothSolver:  Solving for Ux, Initial residual = 0.00521975, Final residual = 2.33796e-06, No Iterations 2
smoothSolver:  Solving for Uy, Initial residual = 0.00564775, Final residual = 2.49913e-06, No Iterations 2
smoothSolver:  Solving for Uz, Initial residual = 0.00586404, Final residual = 2.41528e-06, No Iterations 2
GAMG:  Solving for p, Initial residual = 0.0404751, Final residual = 0.00245776, No Iterations 1
GAMG:  Solving for p, Initial residual = 0.0114642, Final residual = 0.000909381, No Iterations 1
GAMG:  Solving for p, Initial residual = 0.00464548, Final residual = 0.000435589, No Iterations 1
GAMG:  Solving for p, Initial residual = 0.00235826, Final residual = 7.88876e-05, No Iterations 2
GAMG:  Solving for p, Initial residual = 0.00148894, Final residual = 0.000110357, No Iterations 1
[...]
GAMG:  Solving for p, Initial residual = 0.0123407, Final residual = 0.000754746, No Iterations 1
GAMG:  Solving for p, Initial residual = 0.00346614, Final residual = 0.00028713, No Iterations 1
GAMG:  Solving for p, Initial residual = 0.00141587, Final residual = 0.000138537, No Iterations 1
GAMG:  Solving for p, Initial residual = 0.000774289, Final residual = 3.75009e-05, No Iterations 2
GAMG:  Solving for p, Initial residual = 0.000632547, Final residual = 4.1607e-05, No Iterations 1
time step continuity errors : sum local = 54.6197, global = -7.16285, cumulative = -1389.62
ExecutionTime = 140.9 s  ClockTime = 141 s

Time = 1981

smoothSolver:  Solving for Ux, Initial residual = 0.00346805, Final residual = 1.61084e-06, No Iterations 2
smoothSolver:  Solving for Uy, Initial residual = 0.00361154, Final residual = 1.652e-06, No Iterations 2
smoothSolver:  Solving for Uz, Initial residual = 0.00298896, Final residual = 1.17338e-06, No Iterations 2
GAMG:  Solving for p, Initial residual = 0.0118475, Final residual = 0.000731628, No Iterations 1
GAMG:  Solving for p, Initial residual = 0.00334368, Final residual = 0.000274982, No Iterations 1
GAMG:  Solving for p, Initial residual = 0.00134907, Final residual = 0.000132732, No Iterations 1
GAMG:  Solving for p, Initial residual = 0.000736373, Final residual = 3.64868e-05, No Iterations 2
GAMG:  Solving for p, Initial residual = 0.000604567, Final residual = 3.97815e-05, No Iterations 1
time step continuity errors : sum local = 54.4061, global = -7.28443, cumulative = -1396.91
ExecutionTime = 140.97 s  ClockTime = 141 s

Time = 1982

smoothSolver:  Solving for Ux, Initial residual = 0.00346612, Final residual = 1.61826e-06, No Iterations 2
smoothSolver:  Solving for Uy, Initial residual = 0.00360274, Final residual = 1.6525e-06, No Iterations 2
smoothSolver:  Solving for Uz, Initial residual = 0.0029897, Final residual = 1.17737e-06, No Iterations 2
GAMG:  Solving for p, Initial residual = 0.0121557, Final residual = 0.000751109, No Iterations 1
GAMG:  Solving for p, Initial residual = 0.00341388, Final residual = 0.000279826, No Iterations 1
GAMG:  Solving for p, Initial residual = 0.00137415, Final residual = 0.000135321, No Iterations 1
GAMG:  Solving for p, Initial residual = 0.000751203, Final residual = 3.72911e-05, No Iterations 2
GAMG:  Solving for p, Initial residual = 0.000616441, Final residual = 4.07064e-05, No Iterations 1
time step continuity errors : sum local = 54.6765, global = -7.12388, cumulative = -1404.03
ExecutionTime = 141.04 s  ClockTime = 141 s

Time = 1983

smoothSolver:  Solving for Ux, Initial residual = 0.00346729, Final residual = 1.61609e-06, No Iterations 2
smoothSolver:  Solving for Uy, Initial residual = 0.00359501, Final residual = 1.64977e-06, No Iterations 2
smoothSolver:  Solving for Uz, Initial residual = 0.00298927, Final residual = 1.17454e-06, No Iterations 2
GAMG:  Solving for p, Initial residual = 0.0123276, Final residual = 0.000767929, No Iterations 1
GAMG:  Solving for p, Initial residual = 0.0034426, Final residual = 0.000283788, No Iterations 1
GAMG:  Solving for p, Initial residual = 0.00138015, Final residual = 0.000136765, No Iterations 1
GAMG:  Solving for p, Initial residual = 0.00075303, Final residual = 3.82868e-05, No Iterations 2
GAMG:  Solving for p, Initial residual = 0.000620088, Final residual = 4.116e-05, No Iterations 1
time step continuity errors : sum local = 54.867, global = -7.16989, cumulative = -1411.2
ExecutionTime = 141.11 s  ClockTime = 141 s

Time = 1984

smoothSolver:  Solving for Ux, Initial residual = 0.00346609, Final residual = 1.61987e-06, No Iterations 2
smoothSolver:  Solving for Uy, Initial residual = 0.00358854, Final residual = 1.6362e-06, No Iterations 2
smoothSolver:  Solving for Uz, Initial residual = 0.00299017, Final residual = 1.17517e-06, No Iterations 2
GAMG:  Solving for p, Initial residual = 0.0120841, Final residual = 0.000754917, No Iterations 1
GAMG:  Solving for p, Initial residual = 0.00338493, Final residual = 0.000279796, No Iterations 1
GAMG:  Solving for p, Initial residual = 0.00137328, Final residual = 0.000134649, No Iterations 1
GAMG:  Solving for p, Initial residual = 0.000753826, Final residual = 3.7392e-05, No Iterations 2
GAMG:  Solving for p, Initial residual = 0.000617168, Final residual = 4.0669e-05, No Iterations 1
time step continuity errors : sum local = 55.6065, global = -7.19745, cumulative = -1418.4
ExecutionTime = 141.18 s  ClockTime = 141 s

Time = 1985

smoothSolver:  Solving for Ux, Initial residual = 0.00346979, Final residual = 1.62752e-06, No Iterations 2
smoothSolver:  Solving for Uy, Initial residual = 0.00358468, Final residual = 1.62876e-06, No Iterations 2
smoothSolver:  Solving for Uz, Initial residual = 0.00299056, Final residual = 1.17687e-06, No Iterations 2
GAMG:  Solving for p, Initial residual = 0.0121871, Final residual = 0.000760258, No Iterations 1
GAMG:  Solving for p, Initial residual = 0.00340902, Final residual = 0.000279601, No Iterations 1
GAMG:  Solving for p, Initial residual = 0.00138042, Final residual = 0.000135312, No Iterations 1
GAMG:  Solving for p, Initial residual = 0.000762433, Final residual = 3.87167e-05, No Iterations 2
GAMG:  Solving for p, Initial residual = 0.000630751, Final residual = 4.18075e-05, No Iterations 1
time step continuity errors : sum local = 56.7798, global = -7.61652, cumulative = -1426.02
ExecutionTime = 141.25 s  ClockTime = 142 s

Time = 1986

smoothSolver:  Solving for Ux, Initial residual = 0.00346544, Final residual = 1.63612e-06, No Iterations 2
smoothSolver:  Solving for Uy, Initial residual = 0.00357755, Final residual = 1.62988e-06, No Iterations 2
smoothSolver:  Solving for Uz, Initial residual = 0.00298973, Final residual = 1.17355e-06, No Iterations 2
GAMG:  Solving for p, Initial residual = 0.0123221, Final residual = 0.000757287, No Iterations 1
GAMG:  Solving for p, Initial residual = 0.00348023, Final residual = 0.000278861, No Iterations 1
GAMG:  Solving for p, Initial residual = 0.00142027, Final residual = 0.000134728, No Iterations 1
GAMG:  Solving for p, Initial residual = 0.000782737, Final residual = 3.86561e-05, No Iterations 2
GAMG:  Solving for p, Initial residual = 0.000643898, Final residual = 4.22698e-05, No Iterations 1
time step continuity errors : sum local = 57.1771, global = -7.84509, cumulative = -1433.86
ExecutionTime = 141.31 s  ClockTime = 142 s

Time = 1987

smoothSolver:  Solving for Ux, Initial residual = 0.00346548, Final residual = 1.6363e-06, No Iterations 2
smoothSolver:  Solving for Uy, Initial residual = 0.00357373, Final residual = 1.63106e-06, No Iterations 2
smoothSolver:  Solving for Uz, Initial residual = 0.00299009, Final residual = 1.17472e-06, No Iterations 2
GAMG:  Solving for p, Initial residual = 0.0122178, Final residual = 0.000746243, No Iterations 1
GAMG:  Solving for p, Initial residual = 0.00347852, Final residual = 0.00027635, No Iterations 1
GAMG:  Solving for p, Initial residual = 0.00141953, Final residual = 0.000134057, No Iterations 1
GAMG:  Solving for p, Initial residual = 0.000779204, Final residual = 3.93527e-05, No Iterations 2
GAMG:  Solving for p, Initial residual = 0.00065012, Final residual = 4.25062e-05, No Iterations 1
time step continuity errors : sum local = 58.2882, global = -8.58298, cumulative = -1442.44
ExecutionTime = 141.38 s  ClockTime = 142 s

Time = 1988

smoothSolver:  Solving for Ux, Initial residual = 0.00346368, Final residual = 1.64662e-06, No Iterations 2
smoothSolver:  Solving for Uy, Initial residual = 0.00357123, Final residual = 1.63084e-06, No Iterations 2
smoothSolver:  Solving for Uz, Initial residual = 0.00299217, Final residual = 1.18355e-06, No Iterations 2
GAMG:  Solving for p, Initial residual = 0.0123648, Final residual = 0.000759177, No Iterations 1
GAMG:  Solving for p, Initial residual = 0.00361075, Final residual = 0.000284653, No Iterations 1
GAMG:  Solving for p, Initial residual = 0.00148509, Final residual = 0.000138029, No Iterations 1
GAMG:  Solving for p, Initial residual = 0.000805414, Final residual = 4.04742e-05, No Iterations 2
GAMG:  Solving for p, Initial residual = 0.000667966, Final residual = 4.32252e-05, No Iterations 1
time step continuity errors : sum local = 58.9448, global = -8.85326, cumulative = -1451.3
ExecutionTime = 141.45 s  ClockTime = 142 s

Time = 1989

smoothSolver:  Solving for Ux, Initial residual = 0.00346534, Final residual = 1.6369e-06, No Iterations 2
smoothSolver:  Solving for Uy, Initial residual = 0.00356934, Final residual = 1.61717e-06, No Iterations 2
smoothSolver:  Solving for Uz, Initial residual = 0.0029901, Final residual = 1.17394e-06, No Iterations 2
GAMG:  Solving for p, Initial residual = 0.0123438, Final residual = 0.000769167, No Iterations 1
GAMG:  Solving for p, Initial residual = 0.00353988, Final residual = 0.000288337, No Iterations 1
GAMG:  Solving for p, Initial residual = 0.00145315, Final residual = 0.000139163, No Iterations 1
GAMG:  Solving for p, Initial residual = 0.000783451, Final residual = 4.07111e-05, No Iterations 2
GAMG:  Solving for p, Initial residual = 0.00066002, Final residual = 4.33306e-05, No Iterations 1
time step continuity errors : sum local = 59.6147, global = -9.13564, cumulative = -1460.43
ExecutionTime = 141.52 s  ClockTime = 142 s

Time = 1990

smoothSolver:  Solving for Ux, Initial residual = 0.00346853, Final residual = 1.6478e-06, No Iterations 2
smoothSolver:  Solving for Uy, Initial residual = 0.00357156, Final residual = 1.62153e-06, No Iterations 2
smoothSolver:  Solving for Uz, Initial residual = 0.00298995, Final residual = 1.1763e-06, No Iterations 2
GAMG:  Solving for p, Initial residual = 0.0124069, Final residual = 0.000783836, No Iterations 1
GAMG:  Solving for p, Initial residual = 0.00353924, Final residual = 0.000293873, No Iterations 1
GAMG:  Solving for p, Initial residual = 0.00146048, Final residual = 0.000140978, No Iterations 1
GAMG:  Solving for p, Initial residual = 0.000783326, Final residual = 4.0198e-05, No Iterations 2
GAMG:  Solving for p, Initial residual = 0.000656955, Final residual = 4.32284e-05, No Iterations 1
time step continuity errors : sum local = 59.2794, global = -8.87085, cumulative = -1469.3
ExecutionTime = 141.59 s  ClockTime = 142 s

Time = 1991

smoothSolver:  Solving for Ux, Initial residual = 0.00347313, Final residual = 1.64797e-06, No Iterations 2
smoothSolver:  Solving for Uy, Initial residual = 0.00357364, Final residual = 1.62412e-06, No Iterations 2
smoothSolver:  Solving for Uz, Initial residual = 0.00298983, Final residual = 1.17705e-06, No Iterations 2
GAMG:  Solving for p, Initial residual = 0.0122397, Final residual = 0.000783198, No Iterations 1
GAMG:  Solving for p, Initial residual = 0.00347564, Final residual = 0.00029529, No Iterations 1
GAMG:  Solving for p, Initial residual = 0.0014331, Final residual = 0.000139942, No Iterations 1
GAMG:  Solving for p, Initial residual = 0.000771345, Final residual = 4.00153e-05, No Iterations 2
GAMG:  Solving for p, Initial residual = 0.000645854, Final residual = 4.26941e-05, No Iterations 1
time step continuity errors : sum local = 59.5143, global = -8.79205, cumulative = -1478.1
ExecutionTime = 141.66 s  ClockTime = 142 s

Time = 1992

smoothSolver:  Solving for Ux, Initial residual = 0.00347519, Final residual = 1.64922e-06, No Iterations 2
smoothSolver:  Solving for Uy, Initial residual = 0.00357473, Final residual = 1.62705e-06, No Iterations 2
smoothSolver:  Solving for Uz, Initial residual = 0.00298854, Final residual = 1.17512e-06, No Iterations 2
GAMG:  Solving for p, Initial residual = 0.0122184, Final residual = 0.00078867, No Iterations 1
GAMG:  Solving for p, Initial residual = 0.00349032, Final residual = 0.000299349, No Iterations 1
GAMG:  Solving for p, Initial residual = 0.00143475, Final residual = 0.000140559, No Iterations 1
GAMG:  Solving for p, Initial residual = 0.000775268, Final residual = 3.87864e-05, No Iterations 2
GAMG:  Solving for p, Initial residual = 0.000636868, Final residual = 4.19862e-05, No Iterations 1
time step continuity errors : sum local = 58.7599, global = -8.3367, cumulative = -1486.43
ExecutionTime = 141.72 s  ClockTime = 142 s

Time = 1993

smoothSolver:  Solving for Ux, Initial residual = 0.00347795, Final residual = 1.64424e-06, No Iterations 2
smoothSolver:  Solving for Uy, Initial residual = 0.00357562, Final residual = 1.634e-06, No Iterations 2
smoothSolver:  Solving for Uz, Initial residual = 0.00298864, Final residual = 1.17461e-06, No Iterations 2
GAMG:  Solving for p, Initial residual = 0.0121886, Final residual = 0.00079433, No Iterations 1
GAMG:  Solving for p, Initial residual = 0.00346533, Final residual = 0.00030035, No Iterations 1
GAMG:  Solving for p, Initial residual = 0.00141778, Final residual = 0.000140473, No Iterations 1
GAMG:  Solving for p, Initial residual = 0.000771359, Final residual = 3.82678e-05, No Iterations 2
GAMG:  Solving for p, Initial residual = 0.000629776, Final residual = 4.16148e-05, No Iterations 1
time step continuity errors : sum local = 58.6078, global = -8.03176, cumulative = -1494.46
ExecutionTime = 141.8 s  ClockTime = 142 s

Time = 1994

smoothSolver:  Solving for Ux, Initial residual = 0.00348291, Final residual = 1.64926e-06, No Iterations 2
smoothSolver:  Solving for Uy, Initial residual = 0.00358049, Final residual = 1.63564e-06, No Iterations 2
smoothSolver:  Solving for Uz, Initial residual = 0.00298916, Final residual = 1.17664e-06, No Iterations 2
GAMG:  Solving for p, Initial residual = 0.0121322, Final residual = 0.000792281, No Iterations 1
GAMG:  Solving for p, Initial residual = 0.00345706, Final residual = 0.000298776, No Iterations 1
GAMG:  Solving for p, Initial residual = 0.00141236, Final residual = 0.000140142, No Iterations 1
GAMG:  Solving for p, Initial residual = 0.000773099, Final residual = 3.7139e-05, No Iterations 2
GAMG:  Solving for p, Initial residual = 0.000625362, Final residual = 4.1411e-05, No Iterations 1
time step continuity errors : sum local = 58.7984, global = -7.72023, cumulative = -1502.18
ExecutionTime = 141.86 s  ClockTime = 142 s

Time = 1995

smoothSolver:  Solving for Ux, Initial residual = 0.00349174, Final residual = 1.64932e-06, No Iterations 2
smoothSolver:  Solving for Uy, Initial residual = 0.00358706, Final residual = 1.64499e-06, No Iterations 2
smoothSolver:  Solving for Uz, Initial residual = 0.00298669, Final residual = 1.17008e-06, No Iterations 2
GAMG:  Solving for p, Initial residual = 0.0121941, Final residual = 0.000792336, No Iterations 1
GAMG:  Solving for p, Initial residual = 0.00345529, Final residual = 0.000298406, No Iterations 1
GAMG:  Solving for p, Initial residual = 0.00140785, Final residual = 0.000140391, No Iterations 1
GAMG:  Solving for p, Initial residual = 0.000767688, Final residual = 3.72354e-05, No Iterations 2
GAMG:  Solving for p, Initial residual = 0.000627065, Final residual = 4.17243e-05, No Iterations 1
time step continuity errors : sum local = 59.4625, global = -7.66547, cumulative = -1509.85
ExecutionTime = 141.93 s  ClockTime = 142 s

Time = 1996

smoothSolver:  Solving for Ux, Initial residual = 0.00349645, Final residual = 1.6665e-06, No Iterations 2
smoothSolver:  Solving for Uy, Initial residual = 0.00359508, Final residual = 1.65896e-06, No Iterations 2
smoothSolver:  Solving for Uz, Initial residual = 0.00298654, Final residual = 1.17287e-06, No Iterations 2
GAMG:  Solving for p, Initial residual = 0.0116119, Final residual = 0.000745217, No Iterations 1
GAMG:  Solving for p, Initial residual = 0.0032858, Final residual = 0.000280228, No Iterations 1
GAMG:  Solving for p, Initial residual = 0.00133405, Final residual = 0.00013197, No Iterations 1
GAMG:  Solving for p, Initial residual = 0.000725723, Final residual = 3.51287e-05, No Iterations 2
GAMG:  Solving for p, Initial residual = 0.000594896, Final residual = 3.94238e-05, No Iterations 1
time step continuity errors : sum local = 59.7093, global = -7.71411, cumulative = -1517.56
ExecutionTime = 142 s  ClockTime = 142 s

Time = 1997

smoothSolver:  Solving for Ux, Initial residual = 0.00350142, Final residual = 1.66287e-06, No Iterations 2
smoothSolver:  Solving for Uy, Initial residual = 0.00359982, Final residual = 1.64863e-06, No Iterations 2
smoothSolver:  Solving for Uz, Initial residual = 0.00298514, Final residual = 1.17031e-06, No Iterations 2
GAMG:  Solving for p, Initial residual = 0.0120739, Final residual = 0.000772886, No Iterations 1
GAMG:  Solving for p, Initial residual = 0.00341022, Final residual = 0.000288466, No Iterations 1
GAMG:  Solving for p, Initial residual = 0.00138251, Final residual = 0.000136924, No Iterations 1
GAMG:  Solving for p, Initial residual = 0.00075099, Final residual = 3.71637e-05, No Iterations 2
GAMG:  Solving for p, Initial residual = 0.000620309, Final residual = 4.10614e-05, No Iterations 1
time step continuity errors : sum local = 59.997, global = -7.89698, cumulative = -1525.46
ExecutionTime = 142.06 s  ClockTime = 142 s

Time = 1998

smoothSolver:  Solving for Ux, Initial residual = 0.0035011, Final residual = 1.65582e-06, No Iterations 2
smoothSolver:  Solving for Uy, Initial residual = 0.00360196, Final residual = 1.64056e-06, No Iterations 2
smoothSolver:  Solving for Uz, Initial residual = 0.00298271, Final residual = 1.16991e-06, No Iterations 2
GAMG:  Solving for p, Initial residual = 0.0120431, Final residual = 0.00076831, No Iterations 1
GAMG:  Solving for p, Initial residual = 0.00342361, Final residual = 0.000287305, No Iterations 1
GAMG:  Solving for p, Initial residual = 0.00139378, Final residual = 0.000136999, No Iterations 1
GAMG:  Solving for p, Initial residual = 0.000750891, Final residual = 3.74815e-05, No Iterations 2
GAMG:  Solving for p, Initial residual = 0.000620705, Final residual = 4.10334e-05, No Iterations 1
time step continuity errors : sum local = 60.0274, global = -8.2077, cumulative = -1533.67
ExecutionTime = 142.14 s  ClockTime = 142 s

Time = 1999

smoothSolver:  Solving for Ux, Initial residual = 0.00350663, Final residual = 1.64728e-06, No Iterations 2
smoothSolver:  Solving for Uy, Initial residual = 0.00360657, Final residual = 1.63756e-06, No Iterations 2
smoothSolver:  Solving for Uz, Initial residual = 0.00298136, Final residual = 1.17e-06, No Iterations 2
GAMG:  Solving for p, Initial residual = 0.0122054, Final residual = 0.000774153, No Iterations 1
GAMG:  Solving for p, Initial residual = 0.00346181, Final residual = 0.000289719, No Iterations 1
GAMG:  Solving for p, Initial residual = 0.00140998, Final residual = 0.000138682, No Iterations 1
GAMG:  Solving for p, Initial residual = 0.000755804, Final residual = 3.86583e-05, No Iterations 2
GAMG:  Solving for p, Initial residual = 0.000628874, Final residual = 4.14902e-05, No Iterations 1
time step continuity errors : sum local = 60.4051, global = -8.71991, cumulative = -1542.39
ExecutionTime = 142.2 s  ClockTime = 142 s

Time = 2000

smoothSolver:  Solving for Ux, Initial residual = 0.00350727, Final residual = 1.64052e-06, No Iterations 2
smoothSolver:  Solving for Uy, Initial residual = 0.00360843, Final residual = 1.62861e-06, No Iterations 2
smoothSolver:  Solving for Uz, Initial residual = 0.00298162, Final residual = 1.17289e-06, No Iterations 2
GAMG:  Solving for p, Initial residual = 0.0121014, Final residual = 0.000766371, No Iterations 1
GAMG:  Solving for p, Initial residual = 0.00344349, Final residual = 0.000289923, No Iterations 1
GAMG:  Solving for p, Initial residual = 0.00140822, Final residual = 0.000139202, No Iterations 1
GAMG:  Solving for p, Initial residual = 0.00075164, Final residual = 3.89989e-05, No Iterations 2
GAMG:  Solving for p, Initial residual = 0.000626092, Final residual = 4.13656e-05, No Iterations 1
time step continuity errors : sum local = 61.0388, global = -9.14681, cumulative = -1551.54
ExecutionTime = 142.4 s  ClockTime = 143 s

End

