/*---------------------------------------------------------------------------*\
| =========                 |                                                 |
| \\      /  F ield         | OpenFOAM: The Open Source CFD Toolbox           |
|  \\    /   O peration     | Version:  2506                                  |
|   \\  /    A nd           | Website:  www.openfoam.com                      |
|    \\/     M anipulation  |                                                 |
\*---------------------------------------------------------------------------*/
Build  : _615aae61-20250627 OPENFOAM=2506 version=2506
Arch   : "LSB;label=32;scalar=64"
Exec   : simpleFoam -noFunctionObjects -case /home/ubuntu/fan_CFD_dataset/cases/fan_17
Date   : Nov 07 2025
Time   : 14:59:03
Host   : ip-172-31-37-87
PID    : 173997
I/O    : uncollated
Case   : /home/ubuntu/fan_CFD_dataset/cases/fan_17
nProcs : 1
trapFpe: Floating point exception trapping enabled (FOAM_SIGFPE).
fileModificationChecking : Monitoring run-time modified files using timeStampMaster (fileModificationSkew 5, maxFileModificationPolls 20)
allowSystemOperations : Allowing user-supplied system call operations

// * * * * * * * * * * * * * * * * * * * * * * * * * * * * * * * * * * * * * //
Create time

Create mesh for time = 0


SIMPLE: convergence criteria
    field U	 tolerance 1e-05
    field p	 tolerance 0.0001

Reading field p

Reading field U

Reading/calculating face flux field phi

Selecting incompressible transport model Newtonian
Selecting turbulence model type laminar
Selecting laminar stress model Stokes
No MRF models present

No finite volume options present

Starting time loop

Time = 1

smoothSolver:  Solving for Ux, Initial residual = 1, Final residual = 0.000331815, No Iterations 2
smoothSolver:  Solving for Uy, Initial residual = 1, Final residual = 0.000326904, No Iterations 2
smoothSolver:  Solving for Uz, Initial residual = 1, Final residual = 0.000691299, No Iterations 2
GAMG:  Solving for p, Initial residual = 1, Final residual = 0.0637459, No Iterations 4
GAMG:  Solving for p, Initial residual = 0.194844, Final residual = 0.0137216, No Iterations 1
GAMG:  Solving for p, Initial residual = 0.0530474, Final residual = 0.00206401, No Iterations 2
GAMG:  Solving for p, Initial residual = 0.0364884, Final residual = 0.00266595, No Iterations 1
GAMG:  Solving for p, Initial residual = 0.0150817, Final residual = 0.000714208, No Iterations 2
time step continuity errors : sum local = 6.63602, global = -0.888421, cumulative = -0.888421
ExecutionTime = 0.28 s  ClockTime = 0 s

Time = 2

smoothSolver:  Solving for Ux, Initial residual = 0.0826941, Final residual = 3.19271e-05, No Iterations 2
smoothSolver:  Solving for Uy, Initial residual = 0.0837809, Final residual = 3.30819e-05, No Iterations 2
smoothSolver:  Solving for Uz, Initial residual = 0.185046, Final residual = 5.73946e-05, No Iterations 2
GAMG:  Solving for p, Initial residual = 0.451835, Final residual = 0.0366134, No Iterations 4
GAMG:  Solving for p, Initial residual = 0.148856, Final residual = 0.0106701, No Iterations 1
GAMG:  Solving for p, Initial residual = 0.0473165, Final residual = 0.00195383, No Iterations 2
GAMG:  Solving for p, Initial residual = 0.0335319, Final residual = 0.00256239, No Iterations 1
GAMG:  Solving for p, Initial residual = 0.0155212, Final residual = 0.000761509, No Iterations 2
time step continuity errors : sum local = 7.79411, global = -0.53433, cumulative = -1.42275
ExecutionTime = 0.37 s  ClockTime = 0 s

Time = 3

smoothSolver:  Solving for Ux, Initial residual = 0.196582, Final residual = 8.89333e-05, No Iterations 2
smoothSolver:  Solving for Uy, Initial residual = 0.194272, Final residual = 8.74584e-05, No Iterations 2
smoothSolver:  Solving for Uz, Initial residual = 0.526405, Final residual = 0.000187747, No Iterations 2
GAMG:  Solving for p, Initial residual = 0.101836, Final residual = 0.00881424, No Iterations 3
GAMG:  Solving for p, Initial residual = 0.115573, Final residual = 0.00818339, No Iterations 1
GAMG:  Solving for p, Initial residual = 0.0366592, Final residual = 0.00157533, No Iterations 2
GAMG:  Solving for p, Initial residual = 0.0285136, Final residual = 0.00215839, No Iterations 1
GAMG:  Solving for p, Initial residual = 0.0126099, Final residual = 0.000610836, No Iterations 2
time step continuity errors : sum local = 3.95498, global = -0.329536, cumulative = -1.75229
ExecutionTime = 0.46 s  ClockTime = 0 s

Time = 4

smoothSolver:  Solving for Ux, Initial residual = 0.176411, Final residual = 7.68054e-05, No Iterations 2
smoothSolver:  Solving for Uy, Initial residual = 0.175243, Final residual = 7.60798e-05, No Iterations 2
smoothSolver:  Solving for Uz, Initial residual = 0.548934, Final residual = 0.000198536, No Iterations 2
GAMG:  Solving for p, Initial residual = 0.059137, Final residual = 0.00454151, No Iterations 1
GAMG:  Solving for p, Initial residual = 0.0227168, Final residual = 0.0010727, No Iterations 2
GAMG:  Solving for p, Initial residual = 0.0203667, Final residual = 0.00151012, No Iterations 1
GAMG:  Solving for p, Initial residual = 0.00918276, Final residual = 0.000453531, No Iterations 2
GAMG:  Solving for p, Initial residual = 0.00864016, Final residual = 0.000690617, No Iterations 1
time step continuity errors : sum local = 2.81178, global = -0.89749, cumulative = -2.64978
ExecutionTime = 0.55 s  ClockTime = 0 s

Time = 5

smoothSolver:  Solving for Ux, Initial residual = 0.131838, Final residual = 5.48639e-05, No Iterations 2
smoothSolver:  Solving for Uy, Initial residual = 0.130594, Final residual = 5.42065e-05, No Iterations 2
smoothSolver:  Solving for Uz, Initial residual = 0.494171, Final residual = 0.000173077, No Iterations 2
GAMG:  Solving for p, Initial residual = 0.0615183, Final residual = 0.00486196, No Iterations 2
GAMG:  Solving for p, Initial residual = 0.110762, Final residual = 0.0079586, No Iterations 1
GAMG:  Solving for p, Initial residual = 0.0628565, Final residual = 0.0030963, No Iterations 2
GAMG:  Solving for p, Initial residual = 0.0832627, Final residual = 0.00594565, No Iterations 1
GAMG:  Solving for p, Initial residual = 0.0393854, Final residual = 0.00185631, No Iterations 2
time step continuity errors : sum local = 2.07794, global = 0.263567, cumulative = -2.38621
ExecutionTime = 0.64 s  ClockTime = 0 s

Time = 6

smoothSolver:  Solving for Ux, Initial residual = 0.0901785, Final residual = 3.73173e-05, No Iterations 2
smoothSolver:  Solving for Uy, Initial residual = 0.0895161, Final residual = 3.72589e-05, No Iterations 2
smoothSolver:  Solving for Uz, Initial residual = 0.376553, Final residual = 0.000131938, No Iterations 2
GAMG:  Solving for p, Initial residual = 0.0728968, Final residual = 0.00701873, No Iterations 3
GAMG:  Solving for p, Initial residual = 0.307198, Final residual = 0.0214944, No Iterations 1
GAMG:  Solving for p, Initial residual = 0.125784, Final residual = 0.00564257, No Iterations 2
GAMG:  Solving for p, Initial residual = 0.0880086, Final residual = 0.00654021, No Iterations 1
GAMG:  Solving for p, Initial residual = 0.0377226, Final residual = 0.00184316, No Iterations 2
time step continuity errors : sum local = 3.83701, global = 0.315327, cumulative = -2.07088
ExecutionTime = 0.74 s  ClockTime = 0 s

Time = 7

smoothSolver:  Solving for Ux, Initial residual = 0.0590989, Final residual = 2.65919e-05, No Iterations 2
smoothSolver:  Solving for Uy, Initial residual = 0.059668, Final residual = 2.66419e-05, No Iterations 2
smoothSolver:  Solving for Uz, Initial residual = 0.225736, Final residual = 8.34615e-05, No Iterations 2
GAMG:  Solving for p, Initial residual = 0.100195, Final residual = 0.00484588, No Iterations 4
GAMG:  Solving for p, Initial residual = 0.238888, Final residual = 0.0170073, No Iterations 1
GAMG:  Solving for p, Initial residual = 0.0846483, Final residual = 0.00364627, No Iterations 2
GAMG:  Solving for p, Initial residual = 0.0576337, Final residual = 0.00441485, No Iterations 1
GAMG:  Solving for p, Initial residual = 0.0251781, Final residual = 0.00126469, No Iterations 2
time step continuity errors : sum local = 4.52113, global = 0.392287, cumulative = -1.6786
ExecutionTime = 0.83 s  ClockTime = 0 s

Time = 8

smoothSolver:  Solving for Ux, Initial residual = 0.0463971, Final residual = 2.24815e-05, No Iterations 2
smoothSolver:  Solving for Uy, Initial residual = 0.0473842, Final residual = 2.31022e-05, No Iterations 2
smoothSolver:  Solving for Uz, Initial residual = 0.0917875, Final residual = 4.20288e-05, No Iterations 2
GAMG:  Solving for p, Initial residual = 0.219503, Final residual = 0.00947989, No Iterations 4
GAMG:  Solving for p, Initial residual = 0.191227, Final residual = 0.0136943, No Iterations 1
GAMG:  Solving for p, Initial residual = 0.0632215, Final residual = 0.00276399, No Iterations 2
GAMG:  Solving for p, Initial residual = 0.0451659, Final residual = 0.00350498, No Iterations 1
GAMG:  Solving for p, Initial residual = 0.0202717, Final residual = 0.00103397, No Iterations 2
time step continuity errors : sum local = 4.25737, global = 0.358674, cumulative = -1.31992
ExecutionTime = 0.92 s  ClockTime = 1 s

Time = 9

smoothSolver:  Solving for Ux, Initial residual = 0.0551955, Final residual = 2.72281e-05, No Iterations 2
smoothSolver:  Solving for Uy, Initial residual = 0.0560284, Final residual = 2.75305e-05, No Iterations 2
smoothSolver:  Solving for Uz, Initial residual = 0.107346, Final residual = 4.53131e-05, No Iterations 2
GAMG:  Solving for p, Initial residual = 0.229211, Final residual = 0.0206661, No Iterations 2
GAMG:  Solving for p, Initial residual = 0.136899, Final residual = 0.00983807, No Iterations 1
GAMG:  Solving for p, Initial residual = 0.0510052, Final residual = 0.00252482, No Iterations 2
GAMG:  Solving for p, Initial residual = 0.041203, Final residual = 0.00315858, No Iterations 1
GAMG:  Solving for p, Initial residual = 0.0183557, Final residual = 0.000939538, No Iterations 2
time step continuity errors : sum local = 3.42418, global = 0.261945, cumulative = -1.05798
ExecutionTime = 1.01 s  ClockTime = 1 s

Time = 10

smoothSolver:  Solving for Ux, Initial residual = 0.0699173, Final residual = 3.32217e-05, No Iterations 2
smoothSolver:  Solving for Uy, Initial residual = 0.070178, Final residual = 3.3318e-05, No Iterations 2
smoothSolver:  Solving for Uz, Initial residual = 0.228989, Final residual = 8.21932e-05, No Iterations 2
GAMG:  Solving for p, Initial residual = 0.146272, Final residual = 0.0144913, No Iterations 1
GAMG:  Solving for p, Initial residual = 0.0674427, Final residual = 0.00350661, No Iterations 2
GAMG:  Solving for p, Initial residual = 0.0488225, Final residual = 0.00372854, No Iterations 1
GAMG:  Solving for p, Initial residual = 0.0215896, Final residual = 0.00110746, No Iterations 2
GAMG:  Solving for p, Initial residual = 0.0201765, Final residual = 0.00162876, No Iterations 1
time step continuity errors : sum local = 4.25571, global = 1.41873, cumulative = 0.360752
ExecutionTime = 1.09 s  ClockTime = 1 s

Time = 11

smoothSolver:  Solving for Ux, Initial residual = 0.077996, Final residual = 3.63747e-05, No Iterations 2
smoothSolver:  Solving for Uy, Initial residual = 0.0777911, Final residual = 3.65907e-05, No Iterations 2
smoothSolver:  Solving for Uz, Initial residual = 0.31253, Final residual = 0.000108005, No Iterations 2
GAMG:  Solving for p, Initial residual = 0.122842, Final residual = 0.0104649, No Iterations 1
GAMG:  Solving for p, Initial residual = 0.0513485, Final residual = 0.00251755, No Iterations 2
GAMG:  Solving for p, Initial residual = 0.0363544, Final residual = 0.00271909, No Iterations 1
GAMG:  Solving for p, Initial residual = 0.0157595, Final residual = 0.000689957, No Iterations 2
GAMG:  Solving for p, Initial residual = 0.0123774, Final residual = 0.000997407, No Iterations 1
time step continuity errors : sum local = 1.32444, global = -0.114522, cumulative = 0.24623
ExecutionTime = 1.18 s  ClockTime = 1 s

Time = 12

smoothSolver:  Solving for Ux, Initial residual = 0.0777284, Final residual = 3.69128e-05, No Iterations 2
smoothSolver:  Solving for Uy, Initial residual = 0.0779797, Final residual = 3.68359e-05, No Iterations 2
smoothSolver:  Solving for Uz, Initial residual = 0.330945, Final residual = 0.000113679, No Iterations 2
GAMG:  Solving for p, Initial residual = 0.117518, Final residual = 0.00720635, No Iterations 2
GAMG:  Solving for p, Initial residual = 0.228426, Final residual = 0.0160443, No Iterations 1
GAMG:  Solving for p, Initial residual = 0.143103, Final residual = 0.00687697, No Iterations 2
GAMG:  Solving for p, Initial residual = 0.105969, Final residual = 0.00736967, No Iterations 1
GAMG:  Solving for p, Initial residual = 0.0451697, Final residual = 0.00208994, No Iterations 2
time step continuity errors : sum local = 1.37818, global = -0.169126, cumulative = 0.0771047
ExecutionTime = 1.27 s  ClockTime = 1 s

Time = 13

smoothSolver:  Solving for Ux, Initial residual = 0.0694713, Final residual = 3.36245e-05, No Iterations 2
smoothSolver:  Solving for Uy, Initial residual = 0.0704766, Final residual = 3.37963e-05, No Iterations 2
smoothSolver:  Solving for Uz, Initial residual = 0.261671, Final residual = 8.99798e-05, No Iterations 2
GAMG:  Solving for p, Initial residual = 0.130132, Final residual = 0.0115683, No Iterations 2
GAMG:  Solving for p, Initial residual = 0.263709, Final residual = 0.0189369, No Iterations 1
GAMG:  Solving for p, Initial residual = 0.108897, Final residual = 0.00529758, No Iterations 2
GAMG:  Solving for p, Initial residual = 0.0761911, Final residual = 0.00547515, No Iterations 1
GAMG:  Solving for p, Initial residual = 0.0316286, Final residual = 0.001519, No Iterations 2
time step continuity errors : sum local = 2.13008, global = -0.230617, cumulative = -0.153513
ExecutionTime = 1.36 s  ClockTime = 1 s

Time = 14

smoothSolver:  Solving for Ux, Initial residual = 0.0596467, Final residual = 2.94033e-05, No Iterations 2
smoothSolver:  Solving for Uy, Initial residual = 0.0610858, Final residual = 3.03404e-05, No Iterations 2
smoothSolver:  Solving for Uz, Initial residual = 0.139608, Final residual = 5.37564e-05, No Iterations 2
GAMG:  Solving for p, Initial residual = 0.17891, Final residual = 0.013096, No Iterations 3
GAMG:  Solving for p, Initial residual = 0.203496, Final residual = 0.0144874, No Iterations 1
GAMG:  Solving for p, Initial residual = 0.0696269, Final residual = 0.00319042, No Iterations 2
GAMG:  Solving for p, Initial residual = 0.0523645, Final residual = 0.00391713, No Iterations 1
GAMG:  Solving for p, Initial residual = 0.0228445, Final residual = 0.00112942, No Iterations 2
time step continuity errors : sum local = 2.18597, global = -0.176538, cumulative = -0.330051
ExecutionTime = 1.45 s  ClockTime = 1 s

Time = 15

smoothSolver:  Solving for Ux, Initial residual = 0.0540357, Final residual = 2.72587e-05, No Iterations 2
smoothSolver:  Solving for Uy, Initial residual = 0.0554329, Final residual = 2.80899e-05, No Iterations 2
smoothSolver:  Solving for Uz, Initial residual = 0.0670395, Final residual = 3.25283e-05, No Iterations 2
GAMG:  Solving for p, Initial residual = 0.397965, Final residual = 0.037383, No Iterations 2
GAMG:  Solving for p, Initial residual = 0.159474, Final residual = 0.0116115, No Iterations 1
GAMG:  Solving for p, Initial residual = 0.0601, Final residual = 0.00300224, No Iterations 2
GAMG:  Solving for p, Initial residual = 0.0473942, Final residual = 0.0035681, No Iterations 1
GAMG:  Solving for p, Initial residual = 0.0205718, Final residual = 0.00104076, No Iterations 2
time step continuity errors : sum local = 2.01928, global = -0.168748, cumulative = -0.498799
ExecutionTime = 1.53 s  ClockTime = 1 s

Time = 16

smoothSolver:  Solving for Ux, Initial residual = 0.0508717, Final residual = 2.54299e-05, No Iterations 2
smoothSolver:  Solving for Uy, Initial residual = 0.0522916, Final residual = 2.6059e-05, No Iterations 2
smoothSolver:  Solving for Uz, Initial residual = 0.121037, Final residual = 4.48453e-05, No Iterations 2
GAMG:  Solving for p, Initial residual = 0.188789, Final residual = 0.011941, No Iterations 2
GAMG:  Solving for p, Initial residual = 0.109281, Final residual = 0.00840516, No Iterations 1
GAMG:  Solving for p, Initial residual = 0.0424339, Final residual = 0.00223539, No Iterations 2
GAMG:  Solving for p, Initial residual = 0.0371544, Final residual = 0.00292161, No Iterations 1
GAMG:  Solving for p, Initial residual = 0.0170035, Final residual = 0.000893667, No Iterations 2
time step continuity errors : sum local = 1.42299, global = -0.0932777, cumulative = -0.592077
ExecutionTime = 1.63 s  ClockTime = 1 s

Time = 17

smoothSolver:  Solving for Ux, Initial residual = 0.0462944, Final residual = 2.28478e-05, No Iterations 2
smoothSolver:  Solving for Uy, Initial residual = 0.0472515, Final residual = 2.32894e-05, No Iterations 2
smoothSolver:  Solving for Uz, Initial residual = 0.16903, Final residual = 5.69462e-05, No Iterations 2
GAMG:  Solving for p, Initial residual = 0.136556, Final residual = 0.0052049, No Iterations 2
GAMG:  Solving for p, Initial residual = 0.0666057, Final residual = 0.00587188, No Iterations 1
GAMG:  Solving for p, Initial residual = 0.0301321, Final residual = 0.00161432, No Iterations 2
GAMG:  Solving for p, Initial residual = 0.0252972, Final residual = 0.00223202, No Iterations 1
GAMG:  Solving for p, Initial residual = 0.0129876, Final residual = 0.000736156, No Iterations 2
time step continuity errors : sum local = 0.739135, global = -0.040764, cumulative = -0.632841
ExecutionTime = 1.71 s  ClockTime = 1 s

Time = 18

smoothSolver:  Solving for Ux, Initial residual = 0.0399585, Final residual = 1.97097e-05, No Iterations 2
smoothSolver:  Solving for Uy, Initial residual = 0.0408046, Final residual = 2.01249e-05, No Iterations 2
smoothSolver:  Solving for Uz, Initial residual = 0.169952, Final residual = 5.65371e-05, No Iterations 2
GAMG:  Solving for p, Initial residual = 0.121612, Final residual = 0.00577869, No Iterations 2
GAMG:  Solving for p, Initial residual = 0.112266, Final residual = 0.00796641, No Iterations 1
GAMG:  Solving for p, Initial residual = 0.0474428, Final residual = 0.00216892, No Iterations 2
GAMG:  Solving for p, Initial residual = 0.0460421, Final residual = 0.00329866, No Iterations 1
GAMG:  Solving for p, Initial residual = 0.0197706, Final residual = 0.000859707, No Iterations 2
time step continuity errors : sum local = 0.382443, global = 0.0358875, cumulative = -0.596953
ExecutionTime = 1.81 s  ClockTime = 1 s

Time = 19

smoothSolver:  Solving for Ux, Initial residual = 0.0340507, Final residual = 1.69106e-05, No Iterations 2
smoothSolver:  Solving for Uy, Initial residual = 0.0350154, Final residual = 1.71404e-05, No Iterations 2
smoothSolver:  Solving for Uz, Initial residual = 0.138424, Final residual = 4.66174e-05, No Iterations 2
GAMG:  Solving for p, Initial residual = 0.120261, Final residual = 0.00873044, No Iterations 2
GAMG:  Solving for p, Initial residual = 0.277508, Final residual = 0.0196475, No Iterations 1
GAMG:  Solving for p, Initial residual = 0.114386, Final residual = 0.00558123, No Iterations 2
GAMG:  Solving for p, Initial residual = 0.0808018, Final residual = 0.00558411, No Iterations 1
GAMG:  Solving for p, Initial residual = 0.0333342, Final residual = 0.00156486, No Iterations 2
time step continuity errors : sum local = 0.772059, global = 0.105029, cumulative = -0.491924
ExecutionTime = 1.89 s  ClockTime = 2 s

Time = 20

smoothSolver:  Solving for Ux, Initial residual = 0.0306577, Final residual = 1.52286e-05, No Iterations 2
smoothSolver:  Solving for Uy, Initial residual = 0.0317041, Final residual = 1.54854e-05, No Iterations 2
smoothSolver:  Solving for Uz, Initial residual = 0.0903958, Final residual = 3.19742e-05, No Iterations 2
GAMG:  Solving for p, Initial residual = 0.135473, Final residual = 0.0127064, No Iterations 2
GAMG:  Solving for p, Initial residual = 0.218749, Final residual = 0.0157086, No Iterations 1
GAMG:  Solving for p, Initial residual = 0.0897144, Final residual = 0.00442684, No Iterations 2
GAMG:  Solving for p, Initial residual = 0.0656814, Final residual = 0.00471377, No Iterations 1
GAMG:  Solving for p, Initial residual = 0.0273133, Final residual = 0.00134086, No Iterations 2
time step continuity errors : sum local = 1.04346, global = 0.113971, cumulative = -0.377953
ExecutionTime = 1.98 s  ClockTime = 2 s

Time = 21

smoothSolver:  Solving for Ux, Initial residual = 0.0302171, Final residual = 1.46523e-05, No Iterations 2
smoothSolver:  Solving for Uy, Initial residual = 0.0312123, Final residual = 1.5118e-05, No Iterations 2
smoothSolver:  Solving for Uz, Initial residual = 0.0454504, Final residual = 1.93085e-05, No Iterations 2
GAMG:  Solving for p, Initial residual = 0.203155, Final residual = 0.0199792, No Iterations 2
GAMG:  Solving for p, Initial residual = 0.177408, Final residual = 0.0128463, No Iterations 1
GAMG:  Solving for p, Initial residual = 0.0704582, Final residual = 0.00353228, No Iterations 2
GAMG:  Solving for p, Initial residual = 0.0541072, Final residual = 0.00401113, No Iterations 1
GAMG:  Solving for p, Initial residual = 0.0231151, Final residual = 0.00117197, No Iterations 2
time step continuity errors : sum local = 1.07224, global = 0.0995432, cumulative = -0.27841
ExecutionTime = 2.06 s  ClockTime = 2 s

Time = 22

smoothSolver:  Solving for Ux, Initial residual = 0.0308712, Final residual = 1.4739e-05, No Iterations 2
smoothSolver:  Solving for Uy, Initial residual = 0.031844, Final residual = 1.50594e-05, No Iterations 2
smoothSolver:  Solving for Uz, Initial residual = 0.0364864, Final residual = 1.65158e-05, No Iterations 2
GAMG:  Solving for p, Initial residual = 0.258661, Final residual = 0.0196499, No Iterations 2
GAMG:  Solving for p, Initial residual = 0.136445, Final residual = 0.0101918, No Iterations 1
GAMG:  Solving for p, Initial residual = 0.0530555, Final residual = 0.00276687, No Iterations 2
GAMG:  Solving for p, Initial residual = 0.0443922, Final residual = 0.00343186, No Iterations 1
GAMG:  Solving for p, Initial residual = 0.0198474, Final residual = 0.00104174, No Iterations 2
time step continuity errors : sum local = 0.903018, global = 0.067447, cumulative = -0.210963
ExecutionTime = 2.16 s  ClockTime = 2 s

Time = 23

smoothSolver:  Solving for Ux, Initial residual = 0.0310051, Final residual = 1.43178e-05, No Iterations 2
smoothSolver:  Solving for Uy, Initial residual = 0.0318224, Final residual = 1.46741e-05, No Iterations 2
smoothSolver:  Solving for Uz, Initial residual = 0.0581781, Final residual = 2.17539e-05, No Iterations 2
GAMG:  Solving for p, Initial residual = 0.168571, Final residual = 0.00976045, No Iterations 2
GAMG:  Solving for p, Initial residual = 0.094235, Final residual = 0.00792734, No Iterations 1
GAMG:  Solving for p, Initial residual = 0.0401689, Final residual = 0.00226452, No Iterations 2
GAMG:  Solving for p, Initial residual = 0.0370218, Final residual = 0.00301415, No Iterations 1
GAMG:  Solving for p, Initial residual = 0.0174123, Final residual = 0.000952731, No Iterations 2
time step continuity errors : sum local = 0.633761, global = 0.0373774, cumulative = -0.173586
ExecutionTime = 2.24 s  ClockTime = 2 s

Time = 24

smoothSolver:  Solving for Ux, Initial residual = 0.0301294, Final residual = 1.36395e-05, No Iterations 2
smoothSolver:  Solving for Uy, Initial residual = 0.0307344, Final residual = 1.39102e-05, No Iterations 2
smoothSolver:  Solving for Uz, Initial residual = 0.0757123, Final residual = 2.62252e-05, No Iterations 2
GAMG:  Solving for p, Initial residual = 0.13821, Final residual = 0.0056578, No Iterations 2
GAMG:  Solving for p, Initial residual = 0.0777502, Final residual = 0.00700675, No Iterations 1
GAMG:  Solving for p, Initial residual = 0.0338319, Final residual = 0.00163716, No Iterations 2
GAMG:  Solving for p, Initial residual = 0.0250647, Final residual = 0.00239364, No Iterations 1
GAMG:  Solving for p, Initial residual = 0.0134183, Final residual = 0.000704576, No Iterations 2
time step continuity errors : sum local = 0.295606, global = 0.0169926, cumulative = -0.156593
ExecutionTime = 2.34 s  ClockTime = 2 s

Time = 25

smoothSolver:  Solving for Ux, Initial residual = 0.0286436, Final residual = 1.28508e-05, No Iterations 2
smoothSolver:  Solving for Uy, Initial residual = 0.0292927, Final residual = 1.29968e-05, No Iterations 2
smoothSolver:  Solving for Uz, Initial residual = 0.076668, Final residual = 2.56472e-05, No Iterations 2
GAMG:  Solving for p, Initial residual = 0.12681, Final residual = 0.00688706, No Iterations 2
GAMG:  Solving for p, Initial residual = 0.153649, Final residual = 0.0109002, No Iterations 1
GAMG:  Solving for p, Initial residual = 0.0667633, Final residual = 0.00311688, No Iterations 2
GAMG:  Solving for p, Initial residual = 0.0715013, Final residual = 0.00503921, No Iterations 1
GAMG:  Solving for p, Initial residual = 0.029736, Final residual = 0.00131745, No Iterations 2
time step continuity errors : sum local = 0.233593, global = -0.0236942, cumulative = -0.180287
ExecutionTime = 2.43 s  ClockTime = 2 s

Time = 26

smoothSolver:  Solving for Ux, Initial residual = 0.0269536, Final residual = 1.20742e-05, No Iterations 2
smoothSolver:  Solving for Uy, Initial residual = 0.0277579, Final residual = 1.22962e-05, No Iterations 2
smoothSolver:  Solving for Uz, Initial residual = 0.0617437, Final residual = 2.12593e-05, No Iterations 2
GAMG:  Solving for p, Initial residual = 0.128156, Final residual = 0.0093498, No Iterations 2
GAMG:  Solving for p, Initial residual = 0.215349, Final residual = 0.0152516, No Iterations 1
GAMG:  Solving for p, Initial residual = 0.0841103, Final residual = 0.00407029, No Iterations 2
GAMG:  Solving for p, Initial residual = 0.0619428, Final residual = 0.0042489, No Iterations 1
GAMG:  Solving for p, Initial residual = 0.0253336, Final residual = 0.00119049, No Iterations 2
time step continuity errors : sum local = 0.382897, global = -0.0498025, cumulative = -0.23009
ExecutionTime = 2.52 s  ClockTime = 2 s

Time = 27

smoothSolver:  Solving for Ux, Initial residual = 0.0253745, Final residual = 1.14602e-05, No Iterations 2
smoothSolver:  Solving for Uy, Initial residual = 0.0262114, Final residual = 1.1706e-05, No Iterations 2
smoothSolver:  Solving for Uz, Initial residual = 0.0397444, Final residual = 1.48843e-05, No Iterations 2
GAMG:  Solving for p, Initial residual = 0.148359, Final residual = 0.0127819, No Iterations 2
GAMG:  Solving for p, Initial residual = 0.174467, Final residual = 0.0125571, No Iterations 1
GAMG:  Solving for p, Initial residual = 0.0702993, Final residual = 0.00346508, No Iterations 2
GAMG:  Solving for p, Initial residual = 0.0541369, Final residual = 0.0038608, No Iterations 1
GAMG:  Solving for p, Initial residual = 0.0226527, Final residual = 0.00111919, No Iterations 2
time step continuity errors : sum local = 0.478827, global = -0.0519664, cumulative = -0.282056
ExecutionTime = 2.61 s  ClockTime = 2 s

Time = 28

smoothSolver:  Solving for Ux, Initial residual = 0.0238046, Final residual = 1.08543e-05, No Iterations 2
smoothSolver:  Solving for Uy, Initial residual = 0.0246496, Final residual = 1.11219e-05, No Iterations 2
smoothSolver:  Solving for Uz, Initial residual = 0.0259681, Final residual = 1.10963e-05, No Iterations 2
GAMG:  Solving for p, Initial residual = 0.22222, Final residual = 0.0180847, No Iterations 2
GAMG:  Solving for p, Initial residual = 0.141822, Final residual = 0.0103281, No Iterations 1
GAMG:  Solving for p, Initial residual = 0.0565329, Final residual = 0.00287694, No Iterations 2
GAMG:  Solving for p, Initial residual = 0.0460454, Final residual = 0.00341789, No Iterations 1
GAMG:  Solving for p, Initial residual = 0.0199228, Final residual = 0.00102349, No Iterations 2
time step continuity errors : sum local = 0.473495, global = -0.0431853, cumulative = -0.325242
ExecutionTime = 2.69 s  ClockTime = 2 s

Time = 29

smoothSolver:  Solving for Ux, Initial residual = 0.0219791, Final residual = 1.01899e-05, No Iterations 2
smoothSolver:  Solving for Uy, Initial residual = 0.0228653, Final residual = 1.04532e-05, No Iterations 2
smoothSolver:  Solving for Uz, Initial residual = 0.027959, Final residual = 1.1348e-05, No Iterations 2
GAMG:  Solving for p, Initial residual = 0.190692, Final residual = 0.0121813, No Iterations 2
GAMG:  Solving for p, Initial residual = 0.109216, Final residual = 0.00843356, No Iterations 1
GAMG:  Solving for p, Initial residual = 0.0432424, Final residual = 0.00235754, No Iterations 2
GAMG:  Solving for p, Initial residual = 0.0388641, Final residual = 0.0030285, No Iterations 1
GAMG:  Solving for p, Initial residual = 0.0175618, Final residual = 0.000939394, No Iterations 2
time step continuity errors : sum local = 0.394044, global = -0.0284126, cumulative = -0.353654
ExecutionTime = 2.78 s  ClockTime = 2 s

Time = 30

smoothSolver:  Solving for Ux, Initial residual = 0.0199454, Final residual = 9.46152e-06, No Iterations 2
smoothSolver:  Solving for Uy, Initial residual = 0.0208122, Final residual = 9.68898e-06, No Iterations 2
smoothSolver:  Solving for Uz, Initial residual = 0.0357553, Final residual = 1.30468e-05, No Iterations 2
GAMG:  Solving for p, Initial residual = 0.147458, Final residual = 0.00710631, No Iterations 2
GAMG:  Solving for p, Initial residual = 0.0815436, Final residual = 0.0069843, No Iterations 1
GAMG:  Solving for p, Initial residual = 0.0356786, Final residual = 0.00201823, No Iterations 2
GAMG:  Solving for p, Initial residual = 0.0319506, Final residual = 0.00268013, No Iterations 1
GAMG:  Solving for p, Initial residual = 0.0153434, Final residual = 0.0008704, No Iterations 2
time step continuity errors : sum local = 0.276291, global = -0.0171418, cumulative = -0.370796
ExecutionTime = 2.86 s  ClockTime = 2 s

Time = 31

smoothSolver:  Solving for Ux, Initial residual = 0.0181012, Final residual = 8.79448e-06, No Iterations 2
smoothSolver:  Solving for Uy, Initial residual = 0.0188931, Final residual = 8.96676e-06, No Iterations 2
smoothSolver:  Solving for Uz, Initial residual = 0.0392132, Final residual = 1.36826e-05, No Iterations 2
GAMG:  Solving for p, Initial residual = 0.129277, Final residual = 0.00533362, No Iterations 2
GAMG:  Solving for p, Initial residual = 0.0806504, Final residual = 0.0067152, No Iterations 1
GAMG:  Solving for p, Initial residual = 0.0333582, Final residual = 0.0015169, No Iterations 2
GAMG:  Solving for p, Initial residual = 0.0247702, Final residual = 0.00223941, No Iterations 1
GAMG:  Solving for p, Initial residual = 0.0126587, Final residual = 0.000614316, No Iterations 2
time step continuity errors : sum local = 0.132307, global = 0.0104985, cumulative = -0.360298
ExecutionTime = 2.96 s  ClockTime = 3 s

Time = 32

smoothSolver:  Solving for Ux, Initial residual = 0.0169187, Final residual = 8.16232e-06, No Iterations 2
smoothSolver:  Solving for Uy, Initial residual = 0.017724, Final residual = 8.38538e-06, No Iterations 2
smoothSolver:  Solving for Uz, Initial residual = 0.036458, Final residual = 1.27345e-05, No Iterations 2
GAMG:  Solving for p, Initial residual = 0.12088, Final residual = 0.0063924, No Iterations 2
GAMG:  Solving for p, Initial residual = 0.137394, Final residual = 0.00975432, No Iterations 1
GAMG:  Solving for p, Initial residual = 0.0586281, Final residual = 0.0027753, No Iterations 2
GAMG:  Solving for p, Initial residual = 0.0515361, Final residual = 0.00367085, No Iterations 1
GAMG:  Solving for p, Initial residual = 0.0213403, Final residual = 0.000969086, No Iterations 2
time step continuity errors : sum local = 0.125729, global = 0.0132881, cumulative = -0.34701
ExecutionTime = 3.04 s  ClockTime = 3 s

Time = 33

smoothSolver:  Solving for Ux, Initial residual = 0.0165496, Final residual = 7.78582e-06, No Iterations 2
smoothSolver:  Solving for Uy, Initial residual = 0.0173169, Final residual = 8.08253e-06, No Iterations 2
smoothSolver:  Solving for Uz, Initial residual = 0.0288166, Final residual = 1.05561e-05, No Iterations 2
GAMG:  Solving for p, Initial residual = 0.121101, Final residual = 0.00785841, No Iterations 2
GAMG:  Solving for p, Initial residual = 0.15547, Final residual = 0.0110981, No Iterations 1
GAMG:  Solving for p, Initial residual = 0.0624269, Final residual = 0.00307907, No Iterations 2
GAMG:  Solving for p, Initial residual = 0.0488084, Final residual = 0.00337207, No Iterations 1
GAMG:  Solving for p, Initial residual = 0.0202659, Final residual = 0.000969996, No Iterations 2
time step continuity errors : sum local = 0.184496, global = 0.0241846, cumulative = -0.322825
ExecutionTime = 3.14 s  ClockTime = 3 s

Time = 34

smoothSolver:  Solving for Ux, Initial residual = 0.0166248, Final residual = 7.59141e-06, No Iterations 2
smoothSolver:  Solving for Uy, Initial residual = 0.0173355, Final residual = 7.8627e-06, No Iterations 2
smoothSolver:  Solving for Uz, Initial residual = 0.0206681, Final residual = 8.22631e-06, No Iterations 2
GAMG:  Solving for p, Initial residual = 0.13519, Final residual = 0.00944155, No Iterations 2
GAMG:  Solving for p, Initial residual = 0.132031, Final residual = 0.00953864, No Iterations 1
GAMG:  Solving for p, Initial residual = 0.0550354, Final residual = 0.00275183, No Iterations 2
GAMG:  Solving for p, Initial residual = 0.044749, Final residual = 0.0032013, No Iterations 1
GAMG:  Solving for p, Initial residual = 0.0191585, Final residual = 0.00096078, No Iterations 2
time step continuity errors : sum local = 0.218516, global = 0.0234946, cumulative = -0.29933
ExecutionTime = 3.22 s  ClockTime = 3 s

Time = 35

smoothSolver:  Solving for Ux, Initial residual = 0.0166471, Final residual = 7.36949e-06, No Iterations 2
smoothSolver:  Solving for Uy, Initial residual = 0.0173301, Final residual = 7.6937e-06, No Iterations 2
smoothSolver:  Solving for Uz, Initial residual = 0.0162113, Final residual = 6.853e-06, No Iterations 2
GAMG:  Solving for p, Initial residual = 0.175384, Final residual = 0.0107194, No Iterations 2
GAMG:  Solving for p, Initial residual = 0.110884, Final residual = 0.00809027, No Iterations 1
GAMG:  Solving for p, Initial residual = 0.0450618, Final residual = 0.00233337, No Iterations 2
GAMG:  Solving for p, Initial residual = 0.0391293, Final residual = 0.00292571, No Iterations 1
GAMG:  Solving for p, Initial residual = 0.0173995, Final residual = 0.000907069, No Iterations 2
time step continuity errors : sum local = 0.211546, global = 0.0180359, cumulative = -0.281295
ExecutionTime = 3.3 s  ClockTime = 3 s

Time = 36

smoothSolver:  Solving for Ux, Initial residual = 0.0163941, Final residual = 7.16621e-06, No Iterations 2
smoothSolver:  Solving for Uy, Initial residual = 0.0170497, Final residual = 7.48067e-06, No Iterations 2
smoothSolver:  Solving for Uz, Initial residual = 0.0160252, Final residual = 6.53696e-06, No Iterations 2
GAMG:  Solving for p, Initial residual = 0.159763, Final residual = 0.00839618, No Iterations 2
GAMG:  Solving for p, Initial residual = 0.088132, Final residual = 0.00696034, No Iterations 1
GAMG:  Solving for p, Initial residual = 0.036326, Final residual = 0.00201914, No Iterations 2
GAMG:  Solving for p, Initial residual = 0.0342625, Final residual = 0.00268115, No Iterations 1
GAMG:  Solving for p, Initial residual = 0.0158253, Final residual = 0.000856185, No Iterations 2
time step continuity errors : sum local = 0.177566, global = 0.0120015, cumulative = -0.269293
ExecutionTime = 3.39 s  ClockTime = 3 s

Time = 37

smoothSolver:  Solving for Ux, Initial residual = 0.015905, Final residual = 6.90825e-06, No Iterations 2
smoothSolver:  Solving for Uy, Initial residual = 0.0165175, Final residual = 7.14367e-06, No Iterations 2
smoothSolver:  Solving for Uz, Initial residual = 0.0175348, Final residual = 6.60215e-06, No Iterations 2
GAMG:  Solving for p, Initial residual = 0.13577, Final residual = 0.00569513, No Iterations 2
GAMG:  Solving for p, Initial residual = 0.0723092, Final residual = 0.00623563, No Iterations 1
GAMG:  Solving for p, Initial residual = 0.0316989, Final residual = 0.00167252, No Iterations 2
GAMG:  Solving for p, Initial residual = 0.0267328, Final residual = 0.00231127, No Iterations 1
GAMG:  Solving for p, Initial residual = 0.0133946, Final residual = 0.000760086, No Iterations 2
time step continuity errors : sum local = 0.123327, global = 0.00799421, cumulative = -0.261299
ExecutionTime = 3.48 s  ClockTime = 3 s

Time = 38

smoothSolver:  Solving for Ux, Initial residual = 0.0153533, Final residual = 6.64638e-06, No Iterations 2
smoothSolver:  Solving for Uy, Initial residual = 0.0159257, Final residual = 6.84005e-06, No Iterations 2
smoothSolver:  Solving for Uz, Initial residual = 0.018102, Final residual = 6.5766e-06, No Iterations 2
GAMG:  Solving for p, Initial residual = 0.124141, Final residual = 0.00475713, No Iterations 2
GAMG:  Solving for p, Initial residual = 0.0764758, Final residual = 0.00604277, No Iterations 1
GAMG:  Solving for p, Initial residual = 0.0310993, Final residual = 0.00137354, No Iterations 2
GAMG:  Solving for p, Initial residual = 0.0233612, Final residual = 0.00202707, No Iterations 1
GAMG:  Solving for p, Initial residual = 0.0117463, Final residual = 0.000539169, No Iterations 2
time step continuity errors : sum local = 0.0646755, global = -0.0101289, cumulative = -0.271428
ExecutionTime = 3.57 s  ClockTime = 3 s

Time = 39

smoothSolver:  Solving for Ux, Initial residual = 0.0148451, Final residual = 6.38185e-06, No Iterations 2
smoothSolver:  Solving for Uy, Initial residual = 0.0154431, Final residual = 6.55538e-06, No Iterations 2
smoothSolver:  Solving for Uz, Initial residual = 0.0171481, Final residual = 6.2032e-06, No Iterations 2
GAMG:  Solving for p, Initial residual = 0.1181, Final residual = 0.00541994, No Iterations 2
GAMG:  Solving for p, Initial residual = 0.103092, Final residual = 0.00723549, No Iterations 1
GAMG:  Solving for p, Initial residual = 0.038618, Final residual = 0.00183215, No Iterations 2
GAMG:  Solving for p, Initial residual = 0.0295655, Final residual = 0.0021546, No Iterations 1
GAMG:  Solving for p, Initial residual = 0.0125731, Final residual = 0.000589915, No Iterations 2
time step continuity errors : sum local = 0.0657755, global = -0.00602811, cumulative = -0.277456
ExecutionTime = 3.66 s  ClockTime = 3 s

Time = 40

smoothSolver:  Solving for Ux, Initial residual = 0.0143861, Final residual = 6.09702e-06, No Iterations 2
smoothSolver:  Solving for Uy, Initial residual = 0.0150387, Final residual = 6.32176e-06, No Iterations 2
smoothSolver:  Solving for Uz, Initial residual = 0.0151931, Final residual = 5.61642e-06, No Iterations 2
GAMG:  Solving for p, Initial residual = 0.118543, Final residual = 0.00618501, No Iterations 2
GAMG:  Solving for p, Initial residual = 0.0909041, Final residual = 0.00640071, No Iterations 1
GAMG:  Solving for p, Initial residual = 0.0361538, Final residual = 0.00178693, No Iterations 2
GAMG:  Solving for p, Initial residual = 0.0303683, Final residual = 0.00211395, No Iterations 1
GAMG:  Solving for p, Initial residual = 0.0127925, Final residual = 0.000625341, No Iterations 2
time step continuity errors : sum local = 0.0865169, global = -0.0102129, cumulative = -0.287669
ExecutionTime = 3.75 s  ClockTime = 3 s

Time = 41

smoothSolver:  Solving for Ux, Initial residual = 0.0139252, Final residual = 5.82302e-06, No Iterations 2
smoothSolver:  Solving for Uy, Initial residual = 0.0146226, Final residual = 6.10511e-06, No Iterations 2
smoothSolver:  Solving for Uz, Initial residual = 0.0135038, Final residual = 5.1482e-06, No Iterations 2
GAMG:  Solving for p, Initial residual = 0.127789, Final residual = 0.0066324, No Iterations 2
GAMG:  Solving for p, Initial residual = 0.0799433, Final residual = 0.00567338, No Iterations 1
GAMG:  Solving for p, Initial residual = 0.0326836, Final residual = 0.00165155, No Iterations 2
GAMG:  Solving for p, Initial residual = 0.0289221, Final residual = 0.00205883, No Iterations 1
GAMG:  Solving for p, Initial residual = 0.012571, Final residual = 0.000642044, No Iterations 2
time step continuity errors : sum local = 0.0978121, global = -0.00982528, cumulative = -0.297494
ExecutionTime = 3.84 s  ClockTime = 3 s

Time = 42

smoothSolver:  Solving for Ux, Initial residual = 0.0134102, Final residual = 5.6442e-06, No Iterations 2
smoothSolver:  Solving for Uy, Initial residual = 0.0141443, Final residual = 5.88403e-06, No Iterations 2
smoothSolver:  Solving for Uz, Initial residual = 0.0127968, Final residual = 4.96127e-06, No Iterations 2
GAMG:  Solving for p, Initial residual = 0.130588, Final residual = 0.00592023, No Iterations 2
GAMG:  Solving for p, Initial residual = 0.0681927, Final residual = 0.00493272, No Iterations 1
GAMG:  Solving for p, Initial residual = 0.0272542, Final residual = 0.00144324, No Iterations 2
GAMG:  Solving for p, Initial residual = 0.0259031, Final residual = 0.00191556, No Iterations 1
GAMG:  Solving for p, Initial residual = 0.0116723, Final residual = 0.000616381, No Iterations 2
time step continuity errors : sum local = 0.0935857, global = -0.00756025, cumulative = -0.305054
ExecutionTime = 3.93 s  ClockTime = 4 s

Time = 43

smoothSolver:  Solving for Ux, Initial residual = 0.0128377, Final residual = 5.43529e-06, No Iterations 2
smoothSolver:  Solving for Uy, Initial residual = 0.0135993, Final residual = 5.64417e-06, No Iterations 2
smoothSolver:  Solving for Uz, Initial residual = 0.01289, Final residual = 4.90129e-06, No Iterations 2
GAMG:  Solving for p, Initial residual = 0.112092, Final residual = 0.00439583, No Iterations 2
GAMG:  Solving for p, Initial residual = 0.0551786, Final residual = 0.00424362, No Iterations 1
GAMG:  Solving for p, Initial residual = 0.0227844, Final residual = 0.00125699, No Iterations 2
GAMG:  Solving for p, Initial residual = 0.0223046, Final residual = 0.00172452, No Iterations 1
GAMG:  Solving for p, Initial residual = 0.0103779, Final residual = 0.000566618, No Iterations 2
time step continuity errors : sum local = 0.0783523, global = -0.00543418, cumulative = -0.310488
ExecutionTime = 4.01 s  ClockTime = 4 s

Time = 44

smoothSolver:  Solving for Ux, Initial residual = 0.0123134, Final residual = 5.22295e-06, No Iterations 2
smoothSolver:  Solving for Uy, Initial residual = 0.0130494, Final residual = 5.41092e-06, No Iterations 2
smoothSolver:  Solving for Uz, Initial residual = 0.0130598, Final residual = 4.83114e-06, No Iterations 2
GAMG:  Solving for p, Initial residual = 0.101953, Final residual = 0.00352112, No Iterations 2
GAMG:  Solving for p, Initial residual = 0.0474355, Final residual = 0.00387596, No Iterations 1
GAMG:  Solving for p, Initial residual = 0.0199953, Final residual = 0.000966377, No Iterations 2
GAMG:  Solving for p, Initial residual = 0.0162257, Final residual = 0.00137926, No Iterations 1
GAMG:  Solving for p, Initial residual = 0.00818201, Final residual = 0.000448391, No Iterations 2
time step continuity errors : sum local = 0.0531982, global = -0.00354983, cumulative = -0.314038
ExecutionTime = 4.1 s  ClockTime = 4 s

Time = 45

smoothSolver:  Solving for Ux, Initial residual = 0.0119129, Final residual = 5.03674e-06, No Iterations 2
smoothSolver:  Solving for Uy, Initial residual = 0.0125826, Final residual = 5.2166e-06, No Iterations 2
smoothSolver:  Solving for Uz, Initial residual = 0.0128296, Final residual = 4.67329e-06, No Iterations 2
GAMG:  Solving for p, Initial residual = 0.0958883, Final residual = 0.00930646, No Iterations 1
GAMG:  Solving for p, Initial residual = 0.0389772, Final residual = 0.0017636, No Iterations 2
GAMG:  Solving for p, Initial residual = 0.0288393, Final residual = 0.00220812, No Iterations 1
GAMG:  Solving for p, Initial residual = 0.0126166, Final residual = 0.000545022, No Iterations 2
GAMG:  Solving for p, Initial residual = 0.00967111, Final residual = 0.000813942, No Iterations 1
time step continuity errors : sum local = 0.0815776, global = -0.0014217, cumulative = -0.31546
ExecutionTime = 4.19 s  ClockTime = 4 s

Time = 46

smoothSolver:  Solving for Ux, Initial residual = 0.0116661, Final residual = 4.89219e-06, No Iterations 2
smoothSolver:  Solving for Uy, Initial residual = 0.0122432, Final residual = 5.04263e-06, No Iterations 2
smoothSolver:  Solving for Uz, Initial residual = 0.0122291, Final residual = 4.44982e-06, No Iterations 2
GAMG:  Solving for p, Initial residual = 0.0921367, Final residual = 0.00840539, No Iterations 1
GAMG:  Solving for p, Initial residual = 0.042758, Final residual = 0.0022654, No Iterations 2
GAMG:  Solving for p, Initial residual = 0.0359849, Final residual = 0.00256818, No Iterations 1
GAMG:  Solving for p, Initial residual = 0.0147885, Final residual = 0.000670645, No Iterations 2
GAMG:  Solving for p, Initial residual = 0.0126968, Final residual = 0.000942846, No Iterations 1
time step continuity errors : sum local = 0.0820871, global = 0.0175398, cumulative = -0.29792
ExecutionTime = 4.27 s  ClockTime = 4 s

Time = 47

smoothSolver:  Solving for Ux, Initial residual = 0.0115239, Final residual = 4.78625e-06, No Iterations 2
smoothSolver:  Solving for Uy, Initial residual = 0.0120274, Final residual = 4.92386e-06, No Iterations 2
smoothSolver:  Solving for Uz, Initial residual = 0.0114439, Final residual = 4.20683e-06, No Iterations 2
GAMG:  Solving for p, Initial residual = 0.0914905, Final residual = 0.00873922, No Iterations 1
GAMG:  Solving for p, Initial residual = 0.0489167, Final residual = 0.00281029, No Iterations 2
GAMG:  Solving for p, Initial residual = 0.0349797, Final residual = 0.00246794, No Iterations 1
GAMG:  Solving for p, Initial residual = 0.0146709, Final residual = 0.000697096, No Iterations 2
GAMG:  Solving for p, Initial residual = 0.0139989, Final residual = 0.000999958, No Iterations 1
time step continuity errors : sum local = 0.0982398, global = 0.0311953, cumulative = -0.266725
ExecutionTime = 4.36 s  ClockTime = 4 s

Time = 48

smoothSolver:  Solving for Ux, Initial residual = 0.0114123, Final residual = 4.70561e-06, No Iterations 2
smoothSolver:  Solving for Uy, Initial residual = 0.011852, Final residual = 4.79959e-06, No Iterations 2
smoothSolver:  Solving for Uz, Initial residual = 0.0107855, Final residual = 3.98823e-06, No Iterations 2
GAMG:  Solving for p, Initial residual = 0.0935513, Final residual = 0.00875947, No Iterations 1
GAMG:  Solving for p, Initial residual = 0.0473027, Final residual = 0.00266796, No Iterations 2
GAMG:  Solving for p, Initial residual = 0.0335034, Final residual = 0.00239319, No Iterations 1
GAMG:  Solving for p, Initial residual = 0.0143826, Final residual = 0.000704497, No Iterations 2
GAMG:  Solving for p, Initial residual = 0.0143347, Final residual = 0.00103503, No Iterations 1
time step continuity errors : sum local = 0.106949, global = 0.0390277, cumulative = -0.227697
ExecutionTime = 4.44 s  ClockTime = 4 s

Time = 49

smoothSolver:  Solving for Ux, Initial residual = 0.0112771, Final residual = 4.61963e-06, No Iterations 2
smoothSolver:  Solving for Uy, Initial residual = 0.0116626, Final residual = 4.7019e-06, No Iterations 2
smoothSolver:  Solving for Uz, Initial residual = 0.0103881, Final residual = 3.83879e-06, No Iterations 2
GAMG:  Solving for p, Initial residual = 0.0979145, Final residual = 0.00852375, No Iterations 1
GAMG:  Solving for p, Initial residual = 0.0404465, Final residual = 0.00210233, No Iterations 2
GAMG:  Solving for p, Initial residual = 0.030725, Final residual = 0.00225993, No Iterations 1
GAMG:  Solving for p, Initial residual = 0.0133474, Final residual = 0.000675556, No Iterations 2
GAMG:  Solving for p, Initial residual = 0.0133923, Final residual = 0.000999425, No Iterations 1
time step continuity errors : sum local = 0.101989, global = 0.0404711, cumulative = -0.187226
ExecutionTime = 4.52 s  ClockTime = 4 s

Time = 50

smoothSolver:  Solving for Ux, Initial residual = 0.0111037, Final residual = 4.52142e-06, No Iterations 2
smoothSolver:  Solving for Uy, Initial residual = 0.011458, Final residual = 4.58185e-06, No Iterations 2
smoothSolver:  Solving for Uz, Initial residual = 0.0102121, Final residual = 3.74942e-06, No Iterations 2
GAMG:  Solving for p, Initial residual = 0.100091, Final residual = 0.00859802, No Iterations 1
GAMG:  Solving for p, Initial residual = 0.0349321, Final residual = 0.0016266, No Iterations 2
GAMG:  Solving for p, Initial residual = 0.0254289, Final residual = 0.00197202, No Iterations 1
GAMG:  Solving for p, Initial residual = 0.0115169, Final residual = 0.000602481, No Iterations 2
GAMG:  Solving for p, Initial residual = 0.0114737, Final residual = 0.000894535, No Iterations 1
time step continuity errors : sum local = 0.0857089, global = 0.0354424, cumulative = -0.151784
ExecutionTime = 4.6 s  ClockTime = 4 s

Time = 51

smoothSolver:  Solving for Ux, Initial residual = 0.0109021, Final residual = 4.39474e-06, No Iterations 2
smoothSolver:  Solving for Uy, Initial residual = 0.0112444, Final residual = 4.48225e-06, No Iterations 2
smoothSolver:  Solving for Uz, Initial residual = 0.0101059, Final residual = 3.68745e-06, No Iterations 2
GAMG:  Solving for p, Initial residual = 0.0952028, Final residual = 0.00818615, No Iterations 1
GAMG:  Solving for p, Initial residual = 0.0319133, Final residual = 0.00126504, No Iterations 2
GAMG:  Solving for p, Initial residual = 0.0198567, Final residual = 0.0016692, No Iterations 1
GAMG:  Solving for p, Initial residual = 0.00955123, Final residual = 0.000463168, No Iterations 2
GAMG:  Solving for p, Initial residual = 0.00829091, Final residual = 0.000700176, No Iterations 1
time step continuity errors : sum local = 0.061142, global = 0.0235777, cumulative = -0.128206
ExecutionTime = 4.68 s  ClockTime = 4 s

Time = 52

smoothSolver:  Solving for Ux, Initial residual = 0.0106967, Final residual = 4.28222e-06, No Iterations 2
smoothSolver:  Solving for Uy, Initial residual = 0.0110569, Final residual = 4.38737e-06, No Iterations 2
smoothSolver:  Solving for Uz, Initial residual = 0.00997382, Final residual = 3.60541e-06, No Iterations 2
GAMG:  Solving for p, Initial residual = 0.0914003, Final residual = 0.00731687, No Iterations 1
GAMG:  Solving for p, Initial residual = 0.029986, Final residual = 0.00114108, No Iterations 2
GAMG:  Solving for p, Initial residual = 0.0188635, Final residual = 0.00149256, No Iterations 1
GAMG:  Solving for p, Initial residual = 0.00859926, Final residual = 0.000358827, No Iterations 2
GAMG:  Solving for p, Initial residual = 0.00639409, Final residual = 0.000553407, No Iterations 1
time step continuity errors : sum local = 0.044838, global = 0.000430438, cumulative = -0.127776
ExecutionTime = 4.77 s  ClockTime = 4 s

Time = 53

smoothSolver:  Solving for Ux, Initial residual = 0.0104917, Final residual = 4.15759e-06, No Iterations 2
smoothSolver:  Solving for Uy, Initial residual = 0.0108845, Final residual = 4.28972e-06, No Iterations 2
smoothSolver:  Solving for Uz, Initial residual = 0.00979658, Final residual = 3.52449e-06, No Iterations 2
GAMG:  Solving for p, Initial residual = 0.0886908, Final residual = 0.00646587, No Iterations 1
GAMG:  Solving for p, Initial residual = 0.028995, Final residual = 0.00289097, No Iterations 1
GAMG:  Solving for p, Initial residual = 0.0153572, Final residual = 0.000695109, No Iterations 2
GAMG:  Solving for p, Initial residual = 0.0117311, Final residual = 0.000851882, No Iterations 1
GAMG:  Solving for p, Initial residual = 0.00516172, Final residual = 0.00024671, No Iterations 2
time step continuity errors : sum local = 0.0212521, global = -0.00151372, cumulative = -0.129289
ExecutionTime = 4.85 s  ClockTime = 4 s

Time = 54

smoothSolver:  Solving for Ux, Initial residual = 0.0102905, Final residual = 4.05167e-06, No Iterations 2
smoothSolver:  Solving for Uy, Initial residual = 0.0107124, Final residual = 4.20727e-06, No Iterations 2
smoothSolver:  Solving for Uz, Initial residual = 0.00957589, Final residual = 3.44802e-06, No Iterations 2
GAMG:  Solving for p, Initial residual = 0.0871393, Final residual = 0.00615025, No Iterations 1
GAMG:  Solving for p, Initial residual = 0.0274589, Final residual = 0.0012943, No Iterations 2
GAMG:  Solving for p, Initial residual = 0.0186966, Final residual = 0.00131, No Iterations 1
GAMG:  Solving for p, Initial residual = 0.00771362, Final residual = 0.000371692, No Iterations 2
GAMG:  Solving for p, Initial residual = 0.00715183, Final residual = 0.000527613, No Iterations 1
time step continuity errors : sum local = 0.0486769, global = -0.016673, cumulative = -0.145962
ExecutionTime = 4.94 s  ClockTime = 5 s

Time = 55

smoothSolver:  Solving for Ux, Initial residual = 0.0100919, Final residual = 3.96242e-06, No Iterations 2
smoothSolver:  Solving for Uy, Initial residual = 0.0105282, Final residual = 4.13277e-06, No Iterations 2
smoothSolver:  Solving for Uz, Initial residual = 0.00935308, Final residual = 3.35842e-06, No Iterations 2
GAMG:  Solving for p, Initial residual = 0.083568, Final residual = 0.00586765, No Iterations 1
GAMG:  Solving for p, Initial residual = 0.0256742, Final residual = 0.00119107, No Iterations 2
GAMG:  Solving for p, Initial residual = 0.0181145, Final residual = 0.00127707, No Iterations 1
GAMG:  Solving for p, Initial residual = 0.00765034, Final residual = 0.000384119, No Iterations 2
GAMG:  Solving for p, Initial residual = 0.0075037, Final residual = 0.00055226, No Iterations 1
time step continuity errors : sum local = 0.0522665, global = -0.0207844, cumulative = -0.166747
ExecutionTime = 5.02 s  ClockTime = 5 s

Time = 56

smoothSolver:  Solving for Ux, Initial residual = 0.00990092, Final residual = 3.8975e-06, No Iterations 2
smoothSolver:  Solving for Uy, Initial residual = 0.0103267, Final residual = 4.06219e-06, No Iterations 2
smoothSolver:  Solving for Uz, Initial residual = 0.0091544, Final residual = 3.30568e-06, No Iterations 2
GAMG:  Solving for p, Initial residual = 0.078955, Final residual = 0.00559082, No Iterations 1
GAMG:  Solving for p, Initial residual = 0.02382, Final residual = 0.00104348, No Iterations 2
GAMG:  Solving for p, Initial residual = 0.0163718, Final residual = 0.0011853, No Iterations 1
GAMG:  Solving for p, Initial residual = 0.00716105, Final residual = 0.000368398, No Iterations 2
GAMG:  Solving for p, Initial residual = 0.0071316, Final residual = 0.000533389, No Iterations 1
time step continuity errors : sum local = 0.0503141, global = -0.0215144, cumulative = -0.188261
ExecutionTime = 5.11 s  ClockTime = 5 s

Time = 57

smoothSolver:  Solving for Ux, Initial residual = 0.00972266, Final residual = 3.82433e-06, No Iterations 2
smoothSolver:  Solving for Uy, Initial residual = 0.0101107, Final residual = 3.97629e-06, No Iterations 2
smoothSolver:  Solving for Uz, Initial residual = 0.00898406, Final residual = 3.22804e-06, No Iterations 2
GAMG:  Solving for p, Initial residual = 0.0750731, Final residual = 0.00536045, No Iterations 1
GAMG:  Solving for p, Initial residual = 0.0221997, Final residual = 0.000880555, No Iterations 2
GAMG:  Solving for p, Initial residual = 0.0137658, Final residual = 0.00104012, No Iterations 1
GAMG:  Solving for p, Initial residual = 0.00626526, Final residual = 0.000322554, No Iterations 2
GAMG:  Solving for p, Initial residual = 0.00608692, Final residual = 0.000467476, No Iterations 1
time step continuity errors : sum local = 0.0429277, global = -0.0188538, cumulative = -0.207115
ExecutionTime = 5.2 s  ClockTime = 5 s

Time = 58

smoothSolver:  Solving for Ux, Initial residual = 0.00956021, Final residual = 3.75939e-06, No Iterations 2
smoothSolver:  Solving for Uy, Initial residual = 0.00990898, Final residual = 3.90027e-06, No Iterations 2
smoothSolver:  Solving for Uz, Initial residual = 0.00883552, Final residual = 3.17447e-06, No Iterations 2
GAMG:  Solving for p, Initial residual = 0.0720114, Final residual = 0.00507279, No Iterations 1
GAMG:  Solving for p, Initial residual = 0.020941, Final residual = 0.000749916, No Iterations 2
GAMG:  Solving for p, Initial residual = 0.0115724, Final residual = 0.00091917, No Iterations 1
GAMG:  Solving for p, Initial residual = 0.00536742, Final residual = 0.00025545, No Iterations 2
GAMG:  Solving for p, Initial residual = 0.00449112, Final residual = 0.000369852, No Iterations 1
time step continuity errors : sum local = 0.0326817, global = -0.0128867, cumulative = -0.220002
ExecutionTime = 5.28 s  ClockTime = 5 s

Time = 59

smoothSolver:  Solving for Ux, Initial residual = 0.00942941, Final residual = 3.68785e-06, No Iterations 2
smoothSolver:  Solving for Uy, Initial residual = 0.00972053, Final residual = 3.81916e-06, No Iterations 2
smoothSolver:  Solving for Uz, Initial residual = 0.00868872, Final residual = 3.11519e-06, No Iterations 2
GAMG:  Solving for p, Initial residual = 0.0700127, Final residual = 0.00470556, No Iterations 1
GAMG:  Solving for p, Initial residual = 0.0200012, Final residual = 0.00194966, No Iterations 1
GAMG:  Solving for p, Initial residual = 0.00932266, Final residual = 0.000412513, No Iterations 2
GAMG:  Solving for p, Initial residual = 0.00683648, Final residual = 0.000527283, No Iterations 1
GAMG:  Solving for p, Initial residual = 0.00320533, Final residual = 0.000139208, No Iterations 2
time step continuity errors : sum local = 0.0118726, global = 0.00227766, cumulative = -0.217724
ExecutionTime = 5.36 s  ClockTime = 5 s

Time = 60

smoothSolver:  Solving for Ux, Initial residual = 0.00932013, Final residual = 3.64534e-06, No Iterations 2
smoothSolver:  Solving for Uy, Initial residual = 0.00955455, Final residual = 3.77031e-06, No Iterations 2
smoothSolver:  Solving for Uz, Initial residual = 0.0085477, Final residual = 3.08011e-06, No Iterations 2
GAMG:  Solving for p, Initial residual = 0.0685278, Final residual = 0.00434718, No Iterations 1
GAMG:  Solving for p, Initial residual = 0.0192713, Final residual = 0.00176613, No Iterations 1
GAMG:  Solving for p, Initial residual = 0.00926311, Final residual = 0.000427194, No Iterations 2
GAMG:  Solving for p, Initial residual = 0.00739881, Final residual = 0.000521923, No Iterations 1
GAMG:  Solving for p, Initial residual = 0.00322983, Final residual = 0.000146988, No Iterations 2
time step continuity errors : sum local = 0.0120375, global = 0.000916956, cumulative = -0.216807
ExecutionTime = 5.44 s  ClockTime = 5 s

Time = 61

smoothSolver:  Solving for Ux, Initial residual = 0.00923359, Final residual = 3.60054e-06, No Iterations 2
smoothSolver:  Solving for Uy, Initial residual = 0.00940917, Final residual = 3.70717e-06, No Iterations 2
smoothSolver:  Solving for Uz, Initial residual = 0.00840781, Final residual = 3.03296e-06, No Iterations 2
GAMG:  Solving for p, Initial residual = 0.067526, Final residual = 0.00414873, No Iterations 1
GAMG:  Solving for p, Initial residual = 0.0189114, Final residual = 0.0017786, No Iterations 1
GAMG:  Solving for p, Initial residual = 0.00968548, Final residual = 0.000467567, No Iterations 2
GAMG:  Solving for p, Initial residual = 0.00804819, Final residual = 0.000562447, No Iterations 1
GAMG:  Solving for p, Initial residual = 0.00351688, Final residual = 0.00016205, No Iterations 2
time step continuity errors : sum local = 0.0128959, global = 0.0014286, cumulative = -0.215378
ExecutionTime = 5.53 s  ClockTime = 5 s

Time = 62

smoothSolver:  Solving for Ux, Initial residual = 0.00914856, Final residual = 3.56311e-06, No Iterations 2
smoothSolver:  Solving for Uy, Initial residual = 0.00927621, Final residual = 3.66913e-06, No Iterations 2
smoothSolver:  Solving for Uz, Initial residual = 0.00828035, Final residual = 3.00498e-06, No Iterations 2
GAMG:  Solving for p, Initial residual = 0.0671238, Final residual = 0.00409086, No Iterations 1
GAMG:  Solving for p, Initial residual = 0.0187943, Final residual = 0.00178631, No Iterations 1
GAMG:  Solving for p, Initial residual = 0.00979676, Final residual = 0.000484643, No Iterations 2
GAMG:  Solving for p, Initial residual = 0.00826165, Final residual = 0.00058844, No Iterations 1
GAMG:  Solving for p, Initial residual = 0.00369377, Final residual = 0.000174387, No Iterations 2
time step continuity errors : sum local = 0.0137452, global = 0.00167576, cumulative = -0.213703
ExecutionTime = 5.61 s  ClockTime = 5 s

Time = 63

smoothSolver:  Solving for Ux, Initial residual = 0.00907408, Final residual = 3.53476e-06, No Iterations 2
smoothSolver:  Solving for Uy, Initial residual = 0.00915644, Final residual = 3.60606e-06, No Iterations 2
smoothSolver:  Solving for Uz, Initial residual = 0.00816699, Final residual = 2.96217e-06, No Iterations 2
GAMG:  Solving for p, Initial residual = 0.0669888, Final residual = 0.00410184, No Iterations 1
GAMG:  Solving for p, Initial residual = 0.0186811, Final residual = 0.0017422, No Iterations 1
GAMG:  Solving for p, Initial residual = 0.00925758, Final residual = 0.000453325, No Iterations 2
GAMG:  Solving for p, Initial residual = 0.00783062, Final residual = 0.000575573, No Iterations 1
GAMG:  Solving for p, Initial residual = 0.00357817, Final residual = 0.000173378, No Iterations 2
time step continuity errors : sum local = 0.0136407, global = 0.00141626, cumulative = -0.212286
ExecutionTime = 5.69 s  ClockTime = 5 s

Time = 64

smoothSolver:  Solving for Ux, Initial residual = 0.00899012, Final residual = 3.49882e-06, No Iterations 2
smoothSolver:  Solving for Uy, Initial residual = 0.00905169, Final residual = 3.55919e-06, No Iterations 2
smoothSolver:  Solving for Uz, Initial residual = 0.00806628, Final residual = 2.92003e-06, No Iterations 2
GAMG:  Solving for p, Initial residual = 0.0666492, Final residual = 0.00408952, No Iterations 1
GAMG:  Solving for p, Initial residual = 0.0183789, Final residual = 0.0016839, No Iterations 1
GAMG:  Solving for p, Initial residual = 0.00838804, Final residual = 0.000388809, No Iterations 2
GAMG:  Solving for p, Initial residual = 0.00672966, Final residual = 0.000513125, No Iterations 1
GAMG:  Solving for p, Initial residual = 0.00316228, Final residual = 0.000155505, No Iterations 2
time step continuity errors : sum local = 0.012234, global = 0.000946859, cumulative = -0.211339
ExecutionTime = 5.78 s  ClockTime = 5 s

Time = 65

smoothSolver:  Solving for Ux, Initial residual = 0.00890869, Final residual = 3.45453e-06, No Iterations 2
smoothSolver:  Solving for Uy, Initial residual = 0.00895396, Final residual = 3.49777e-06, No Iterations 2
smoothSolver:  Solving for Uz, Initial residual = 0.00797189, Final residual = 2.87681e-06, No Iterations 2
GAMG:  Solving for p, Initial residual = 0.066109, Final residual = 0.00400363, No Iterations 1
GAMG:  Solving for p, Initial residual = 0.0179541, Final residual = 0.00164534, No Iterations 1
GAMG:  Solving for p, Initial residual = 0.00769916, Final residual = 0.00031373, No Iterations 2
GAMG:  Solving for p, Initial residual = 0.00535559, Final residual = 0.000429695, No Iterations 1
GAMG:  Solving for p, Initial residual = 0.00261903, Final residual = 0.000123806, No Iterations 2
time step continuity errors : sum local = 0.00980552, global = 0.00047452, cumulative = -0.210865
ExecutionTime = 5.86 s  ClockTime = 5 s

Time = 66

smoothSolver:  Solving for Ux, Initial residual = 0.00882508, Final residual = 3.41598e-06, No Iterations 2
smoothSolver:  Solving for Uy, Initial residual = 0.00886074, Final residual = 3.44704e-06, No Iterations 2
smoothSolver:  Solving for Uz, Initial residual = 0.00787381, Final residual = 2.82152e-06, No Iterations 2
GAMG:  Solving for p, Initial residual = 0.0652823, Final residual = 0.00386187, No Iterations 1
GAMG:  Solving for p, Initial residual = 0.0174501, Final residual = 0.00156416, No Iterations 1
GAMG:  Solving for p, Initial residual = 0.00724315, Final residual = 0.000268581, No Iterations 2
GAMG:  Solving for p, Initial residual = 0.00453859, Final residual = 0.000375197, No Iterations 1
GAMG:  Solving for p, Initial residual = 0.0022706, Final residual = 9.29727e-05, No Iterations 2
time step continuity errors : sum local = 0.00742051, global = -0.000345097, cumulative = -0.21121
ExecutionTime = 5.94 s  ClockTime = 6 s

Time = 67

smoothSolver:  Solving for Ux, Initial residual = 0.00874271, Final residual = 3.38819e-06, No Iterations 2
smoothSolver:  Solving for Uy, Initial residual = 0.00876947, Final residual = 3.39633e-06, No Iterations 2
smoothSolver:  Solving for Uz, Initial residual = 0.00776857, Final residual = 2.77555e-06, No Iterations 2
GAMG:  Solving for p, Initial residual = 0.0640871, Final residual = 0.00369929, No Iterations 1
GAMG:  Solving for p, Initial residual = 0.0168875, Final residual = 0.00144944, No Iterations 1
GAMG:  Solving for p, Initial residual = 0.00689717, Final residual = 0.000262094, No Iterations 2
GAMG:  Solving for p, Initial residual = 0.00444919, Final residual = 0.000335746, No Iterations 1
GAMG:  Solving for p, Initial residual = 0.00212399, Final residual = 9.26608e-05, No Iterations 2
time step continuity errors : sum local = 0.00747088, global = -0.000659319, cumulative = -0.211869
ExecutionTime = 6.02 s  ClockTime = 6 s

Time = 68

smoothSolver:  Solving for Ux, Initial residual = 0.00865349, Final residual = 3.37013e-06, No Iterations 2
smoothSolver:  Solving for Uy, Initial residual = 0.00867152, Final residual = 3.36036e-06, No Iterations 2
smoothSolver:  Solving for Uz, Initial residual = 0.00765439, Final residual = 2.73874e-06, No Iterations 2
GAMG:  Solving for p, Initial residual = 0.0626995, Final residual = 0.00357814, No Iterations 1
GAMG:  Solving for p, Initial residual = 0.0164056, Final residual = 0.00136652, No Iterations 1
GAMG:  Solving for p, Initial residual = 0.00671399, Final residual = 0.000280916, No Iterations 2
GAMG:  Solving for p, Initial residual = 0.00463766, Final residual = 0.000334906, No Iterations 1
GAMG:  Solving for p, Initial residual = 0.0021591, Final residual = 0.000101679, No Iterations 2
time step continuity errors : sum local = 0.00828739, global = -0.00057349, cumulative = -0.212443
ExecutionTime = 6.11 s  ClockTime = 6 s

Time = 69

smoothSolver:  Solving for Ux, Initial residual = 0.00856982, Final residual = 3.3209e-06, No Iterations 2
smoothSolver:  Solving for Uy, Initial residual = 0.00858062, Final residual = 3.30192e-06, No Iterations 2
smoothSolver:  Solving for Uz, Initial residual = 0.00753483, Final residual = 2.68541e-06, No Iterations 2
GAMG:  Solving for p, Initial residual = 0.0613866, Final residual = 0.00348841, No Iterations 1
GAMG:  Solving for p, Initial residual = 0.0160291, Final residual = 0.00133542, No Iterations 1
GAMG:  Solving for p, Initial residual = 0.00662359, Final residual = 0.000288519, No Iterations 2
GAMG:  Solving for p, Initial residual = 0.00474757, Final residual = 0.000342739, No Iterations 1
GAMG:  Solving for p, Initial residual = 0.00221496, Final residual = 0.000108123, No Iterations 2
time step continuity errors : sum local = 0.00887068, global = -0.000660563, cumulative = -0.213103
ExecutionTime = 6.19 s  ClockTime = 6 s

Time = 70

smoothSolver:  Solving for Ux, Initial residual = 0.00848086, Final residual = 3.29966e-06, No Iterations 2
smoothSolver:  Solving for Uy, Initial residual = 0.00849114, Final residual = 3.25845e-06, No Iterations 2
smoothSolver:  Solving for Uz, Initial residual = 0.00741351, Final residual = 2.64827e-06, No Iterations 2
GAMG:  Solving for p, Initial residual = 0.0599708, Final residual = 0.00341236, No Iterations 1
GAMG:  Solving for p, Initial residual = 0.0156741, Final residual = 0.00131875, No Iterations 1
GAMG:  Solving for p, Initial residual = 0.00645475, Final residual = 0.000281079, No Iterations 2
GAMG:  Solving for p, Initial residual = 0.00460079, Final residual = 0.00033844, No Iterations 1
GAMG:  Solving for p, Initial residual = 0.00217684, Final residual = 0.000107872, No Iterations 2
time step continuity errors : sum local = 0.00886534, global = -0.000653715, cumulative = -0.213757
ExecutionTime = 6.27 s  ClockTime = 6 s

Time = 71

smoothSolver:  Solving for Ux, Initial residual = 0.00840374, Final residual = 3.25159e-06, No Iterations 2
smoothSolver:  Solving for Uy, Initial residual = 0.00839919, Final residual = 3.20603e-06, No Iterations 2
smoothSolver:  Solving for Uz, Initial residual = 0.00729379, Final residual = 2.59721e-06, No Iterations 2
GAMG:  Solving for p, Initial residual = 0.0587286, Final residual = 0.00333992, No Iterations 1
GAMG:  Solving for p, Initial residual = 0.0153411, Final residual = 0.00130304, No Iterations 1
GAMG:  Solving for p, Initial residual = 0.00623734, Final residual = 0.00025959, No Iterations 2
GAMG:  Solving for p, Initial residual = 0.00423191, Final residual = 0.000321208, No Iterations 1
GAMG:  Solving for p, Initial residual = 0.0020533, Final residual = 0.000101243, No Iterations 2
time step continuity errors : sum local = 0.00830108, global = -0.00058596, cumulative = -0.214343
ExecutionTime = 6.35 s  ClockTime = 6 s

Time = 72

smoothSolver:  Solving for Ux, Initial residual = 0.00832765, Final residual = 3.22479e-06, No Iterations 2
smoothSolver:  Solving for Uy, Initial residual = 0.00831074, Final residual = 3.16804e-06, No Iterations 2
smoothSolver:  Solving for Uz, Initial residual = 0.00718141, Final residual = 2.55473e-06, No Iterations 2
GAMG:  Solving for p, Initial residual = 0.0575695, Final residual = 0.00325921, No Iterations 1
GAMG:  Solving for p, Initial residual = 0.0150644, Final residual = 0.00127225, No Iterations 1
GAMG:  Solving for p, Initial residual = 0.00606613, Final residual = 0.000228371, No Iterations 2
GAMG:  Solving for p, Initial residual = 0.00377313, Final residual = 0.000295224, No Iterations 1
GAMG:  Solving for p, Initial residual = 0.00187448, Final residual = 8.8987e-05, No Iterations 2
time step continuity errors : sum local = 0.00726101, global = -0.000592844, cumulative = -0.214936
ExecutionTime = 6.43 s  ClockTime = 6 s

Time = 73

smoothSolver:  Solving for Ux, Initial residual = 0.00825424, Final residual = 3.19641e-06, No Iterations 2
smoothSolver:  Solving for Uy, Initial residual = 0.00822855, Final residual = 3.1363e-06, No Iterations 2
smoothSolver:  Solving for Uz, Initial residual = 0.007077, Final residual = 2.5168e-06, No Iterations 2
GAMG:  Solving for p, Initial residual = 0.0565083, Final residual = 0.00317111, No Iterations 1
GAMG:  Solving for p, Initial residual = 0.0148095, Final residual = 0.00122408, No Iterations 1
GAMG:  Solving for p, Initial residual = 0.00590155, Final residual = 0.000199549, No Iterations 2
GAMG:  Solving for p, Initial residual = 0.00345512, Final residual = 0.0002699, No Iterations 1
GAMG:  Solving for p, Initial residual = 0.00172032, Final residual = 7.32071e-05, No Iterations 2
time step continuity errors : sum local = 0.00594452, global = -0.000287451, cumulative = -0.215223
ExecutionTime = 6.52 s  ClockTime = 6 s

Time = 74

smoothSolver:  Solving for Ux, Initial residual = 0.00818797, Final residual = 3.17364e-06, No Iterations 2
smoothSolver:  Solving for Uy, Initial residual = 0.00814509, Final residual = 3.10253e-06, No Iterations 2
smoothSolver:  Solving for Uz, Initial residual = 0.0069772, Final residual = 2.48746e-06, No Iterations 2
GAMG:  Solving for p, Initial residual = 0.0556566, Final residual = 0.00310743, No Iterations 1
GAMG:  Solving for p, Initial residual = 0.0145897, Final residual = 0.00118312, No Iterations 1
GAMG:  Solving for p, Initial residual = 0.00578199, Final residual = 0.000575543, No Iterations 1
GAMG:  Solving for p, Initial residual = 0.00297533, Final residual = 0.000117943, No Iterations 2
GAMG:  Solving for p, Initial residual = 0.00210172, Final residual = 0.000164706, No Iterations 1
time step continuity errors : sum local = 0.0132957, global = 0.000340852, cumulative = -0.214883
ExecutionTime = 6.6 s  ClockTime = 6 s

Time = 75

smoothSolver:  Solving for Ux, Initial residual = 0.00812421, Final residual = 3.14889e-06, No Iterations 2
smoothSolver:  Solving for Uy, Initial residual = 0.00806743, Final residual = 3.07105e-06, No Iterations 2
smoothSolver:  Solving for Uz, Initial residual = 0.00688187, Final residual = 2.45003e-06, No Iterations 2
GAMG:  Solving for p, Initial residual = 0.0549908, Final residual = 0.00306366, No Iterations 1
GAMG:  Solving for p, Initial residual = 0.0144224, Final residual = 0.00116337, No Iterations 1
GAMG:  Solving for p, Initial residual = 0.00570412, Final residual = 0.000562338, No Iterations 1
GAMG:  Solving for p, Initial residual = 0.00295064, Final residual = 0.000130985, No Iterations 2
GAMG:  Solving for p, Initial residual = 0.00220414, Final residual = 0.000167599, No Iterations 1
time step continuity errors : sum local = 0.013428, global = 0.00186809, cumulative = -0.213014
ExecutionTime = 6.68 s  ClockTime = 6 s

Time = 76

smoothSolver:  Solving for Ux, Initial residual = 0.00806344, Final residual = 3.12735e-06, No Iterations 2
smoothSolver:  Solving for Uy, Initial residual = 0.00799412, Final residual = 3.04154e-06, No Iterations 2
smoothSolver:  Solving for Uz, Initial residual = 0.00679132, Final residual = 2.40845e-06, No Iterations 2
GAMG:  Solving for p, Initial residual = 0.0543801, Final residual = 0.00302598, No Iterations 1
GAMG:  Solving for p, Initial residual = 0.0142658, Final residual = 0.00115569, No Iterations 1
GAMG:  Solving for p, Initial residual = 0.00565843, Final residual = 0.000562703, No Iterations 1
GAMG:  Solving for p, Initial residual = 0.00298535, Final residual = 0.000138225, No Iterations 2
GAMG:  Solving for p, Initial residual = 0.00231706, Final residual = 0.000174747, No Iterations 1
time step continuity errors : sum local = 0.0139202, global = 0.00287288, cumulative = -0.210142
ExecutionTime = 6.76 s  ClockTime = 6 s

Time = 77

smoothSolver:  Solving for Ux, Initial residual = 0.00800939, Final residual = 3.09346e-06, No Iterations 2
smoothSolver:  Solving for Uy, Initial residual = 0.00792594, Final residual = 3.00249e-06, No Iterations 2
smoothSolver:  Solving for Uz, Initial residual = 0.00670496, Final residual = 2.36433e-06, No Iterations 2
GAMG:  Solving for p, Initial residual = 0.0538145, Final residual = 0.00300318, No Iterations 1
GAMG:  Solving for p, Initial residual = 0.014132, Final residual = 0.00115905, No Iterations 1
GAMG:  Solving for p, Initial residual = 0.00561655, Final residual = 0.000207441, No Iterations 2
GAMG:  Solving for p, Initial residual = 0.00353581, Final residual = 0.000261391, No Iterations 1
GAMG:  Solving for p, Initial residual = 0.00168209, Final residual = 7.71968e-05, No Iterations 2
time step continuity errors : sum local = 0.00613218, global = 0.000343277, cumulative = -0.209798
ExecutionTime = 6.84 s  ClockTime = 6 s

Time = 78

smoothSolver:  Solving for Ux, Initial residual = 0.00795074, Final residual = 3.07862e-06, No Iterations 2
smoothSolver:  Solving for Uy, Initial residual = 0.00786225, Final residual = 2.98202e-06, No Iterations 2
smoothSolver:  Solving for Uz, Initial residual = 0.00661809, Final residual = 2.33212e-06, No Iterations 2
GAMG:  Solving for p, Initial residual = 0.0533126, Final residual = 0.00295271, No Iterations 1
GAMG:  Solving for p, Initial residual = 0.0139759, Final residual = 0.00114701, No Iterations 1
GAMG:  Solving for p, Initial residual = 0.00553738, Final residual = 0.000195, No Iterations 2
GAMG:  Solving for p, Initial residual = 0.00338804, Final residual = 0.000253691, No Iterations 1
GAMG:  Solving for p, Initial residual = 0.00163426, Final residual = 7.41455e-05, No Iterations 2
time step continuity errors : sum local = 0.00588197, global = 0.000311269, cumulative = -0.209487
ExecutionTime = 6.93 s  ClockTime = 7 s

Time = 79

smoothSolver:  Solving for Ux, Initial residual = 0.00789237, Final residual = 3.0514e-06, No Iterations 2
smoothSolver:  Solving for Uy, Initial residual = 0.00780421, Final residual = 2.96742e-06, No Iterations 2
smoothSolver:  Solving for Uz, Initial residual = 0.00653195, Final residual = 2.30915e-06, No Iterations 2
GAMG:  Solving for p, Initial residual = 0.0526344, Final residual = 0.00290802, No Iterations 1
GAMG:  Solving for p, Initial residual = 0.0137996, Final residual = 0.00113177, No Iterations 1
GAMG:  Solving for p, Initial residual = 0.0054329, Final residual = 0.000178054, No Iterations 2
GAMG:  Solving for p, Initial residual = 0.00316302, Final residual = 0.000241986, No Iterations 1
GAMG:  Solving for p, Initial residual = 0.00154893, Final residual = 6.73818e-05, No Iterations 2
time step continuity errors : sum local = 0.00534462, global = 0.000294627, cumulative = -0.209192
ExecutionTime = 7.01 s  ClockTime = 7 s

Time = 80

smoothSolver:  Solving for Ux, Initial residual = 0.007833, Final residual = 3.0298e-06, No Iterations 2
smoothSolver:  Solving for Uy, Initial residual = 0.00774378, Final residual = 2.94852e-06, No Iterations 2
smoothSolver:  Solving for Uz, Initial residual = 0.00644552, Final residual = 2.27953e-06, No Iterations 2
GAMG:  Solving for p, Initial residual = 0.0520296, Final residual = 0.0028566, No Iterations 1
GAMG:  Solving for p, Initial residual = 0.0135844, Final residual = 0.00110886, No Iterations 1
GAMG:  Solving for p, Initial residual = 0.00532208, Final residual = 0.000167861, No Iterations 2
GAMG:  Solving for p, Initial residual = 0.00296196, Final residual = 0.000230715, No Iterations 1
GAMG:  Solving for p, Initial residual = 0.00146219, Final residual = 5.67508e-05, No Iterations 2
time step continuity errors : sum local = 0.00450464, global = 0.000404081, cumulative = -0.208788
ExecutionTime = 7.09 s  ClockTime = 7 s

Time = 81

smoothSolver:  Solving for Ux, Initial residual = 0.00777713, Final residual = 2.99676e-06, No Iterations 2
smoothSolver:  Solving for Uy, Initial residual = 0.00768795, Final residual = 2.93462e-06, No Iterations 2
smoothSolver:  Solving for Uz, Initial residual = 0.00635697, Final residual = 2.2571e-06, No Iterations 2
GAMG:  Solving for p, Initial residual = 0.0513936, Final residual = 0.00282701, No Iterations 1
GAMG:  Solving for p, Initial residual = 0.0133787, Final residual = 0.00108928, No Iterations 1
GAMG:  Solving for p, Initial residual = 0.00521918, Final residual = 0.000162705, No Iterations 2
GAMG:  Solving for p, Initial residual = 0.00284981, Final residual = 0.000219454, No Iterations 1
GAMG:  Solving for p, Initial residual = 0.00140145, Final residual = 5.10608e-05, No Iterations 2
time step continuity errors : sum local = 0.00405618, global = -5.40379e-05, cumulative = -0.208842
ExecutionTime = 7.18 s  ClockTime = 7 s

Time = 82

smoothSolver:  Solving for Ux, Initial residual = 0.00772363, Final residual = 2.9658e-06, No Iterations 2
smoothSolver:  Solving for Uy, Initial residual = 0.00763037, Final residual = 2.90923e-06, No Iterations 2
smoothSolver:  Solving for Uz, Initial residual = 0.00627017, Final residual = 2.21888e-06, No Iterations 2
GAMG:  Solving for p, Initial residual = 0.0507724, Final residual = 0.00279054, No Iterations 1
GAMG:  Solving for p, Initial residual = 0.0131995, Final residual = 0.00107431, No Iterations 1
GAMG:  Solving for p, Initial residual = 0.0051497, Final residual = 0.000510893, No Iterations 1
GAMG:  Solving for p, Initial residual = 0.00258381, Final residual = 9.83461e-05, No Iterations 2
GAMG:  Solving for p, Initial residual = 0.00170374, Final residual = 0.00013401, No Iterations 1
time step continuity errors : sum local = 0.0106574, global = -0.00207378, cumulative = -0.210916
ExecutionTime = 7.26 s  ClockTime = 7 s

Time = 83

smoothSolver:  Solving for Ux, Initial residual = 0.00767327, Final residual = 2.94421e-06, No Iterations 2
[...]
GAMG:  Solving for p, Initial residual = 0.000230111, Final residual = 1.94936e-05, No Iterations 1
GAMG:  Solving for p, Initial residual = 0.000114489, Final residual = 4.92627e-06, No Iterations 2
time step continuity errors : sum local = 0.000380766, global = 3.05121e-05, cumulative = -0.180788
ExecutionTime = 169.42 s  ClockTime = 169 s

Time = 1981

smoothSolver:  Solving for Ux, Initial residual = 0.000191296, Final residual = 8.91843e-08, No Iterations 2
smoothSolver:  Solving for Uy, Initial residual = 0.000234853, Final residual = 1.15788e-07, No Iterations 2
smoothSolver:  Solving for Uz, Initial residual = 9.71907e-05, Final residual = 4.25653e-08, No Iterations 2
GAMG:  Solving for p, Initial residual = 0.0028756, Final residual = 0.000203806, No Iterations 1
GAMG:  Solving for p, Initial residual = 0.000936012, Final residual = 9.15219e-05, No Iterations 1
GAMG:  Solving for p, Initial residual = 0.000391997, Final residual = 1.50204e-05, No Iterations 2
GAMG:  Solving for p, Initial residual = 0.000222779, Final residual = 1.8848e-05, No Iterations 1
GAMG:  Solving for p, Initial residual = 0.000112, Final residual = 4.81567e-06, No Iterations 2
time step continuity errors : sum local = 0.000372231, global = 1.11868e-05, cumulative = -0.180777
ExecutionTime = 169.5 s  ClockTime = 169 s

Time = 1982

smoothSolver:  Solving for Ux, Initial residual = 0.000193503, Final residual = 9.08911e-08, No Iterations 2
smoothSolver:  Solving for Uy, Initial residual = 0.00024187, Final residual = 1.20692e-07, No Iterations 2
smoothSolver:  Solving for Uz, Initial residual = 9.7538e-05, Final residual = 4.19576e-08, No Iterations 2
GAMG:  Solving for p, Initial residual = 0.0029024, Final residual = 0.000206483, No Iterations 1
GAMG:  Solving for p, Initial residual = 0.000941444, Final residual = 9.2995e-05, No Iterations 1
GAMG:  Solving for p, Initial residual = 0.000393273, Final residual = 1.48135e-05, No Iterations 2
GAMG:  Solving for p, Initial residual = 0.000220201, Final residual = 1.88263e-05, No Iterations 1
GAMG:  Solving for p, Initial residual = 0.000110518, Final residual = 4.70272e-06, No Iterations 2
time step continuity errors : sum local = 0.000363556, global = 6.75259e-06, cumulative = -0.18077
ExecutionTime = 169.58 s  ClockTime = 169 s

Time = 1983

smoothSolver:  Solving for Ux, Initial residual = 0.000192912, Final residual = 9.11868e-08, No Iterations 2
smoothSolver:  Solving for Uy, Initial residual = 0.000242329, Final residual = 1.16105e-07, No Iterations 2
smoothSolver:  Solving for Uz, Initial residual = 9.708e-05, Final residual = 4.24642e-08, No Iterations 2
GAMG:  Solving for p, Initial residual = 0.0029793, Final residual = 0.000216179, No Iterations 1
GAMG:  Solving for p, Initial residual = 0.000977807, Final residual = 3.07827e-05, No Iterations 2
GAMG:  Solving for p, Initial residual = 0.000432307, Final residual = 3.3717e-05, No Iterations 1
GAMG:  Solving for p, Initial residual = 0.000196145, Final residual = 7.30621e-06, No Iterations 2
GAMG:  Solving for p, Initial residual = 0.000124408, Final residual = 1.02036e-05, No Iterations 1
time step continuity errors : sum local = 0.000788756, global = 3.0433e-05, cumulative = -0.18074
ExecutionTime = 169.67 s  ClockTime = 169 s

Time = 1984

smoothSolver:  Solving for Ux, Initial residual = 0.00019029, Final residual = 8.68577e-08, No Iterations 2
smoothSolver:  Solving for Uy, Initial residual = 0.000243242, Final residual = 1.18951e-07, No Iterations 2
smoothSolver:  Solving for Uz, Initial residual = 9.536e-05, Final residual = 4.15228e-08, No Iterations 2
GAMG:  Solving for p, Initial residual = 0.00297117, Final residual = 0.000216376, No Iterations 1
GAMG:  Solving for p, Initial residual = 0.000973948, Final residual = 3.09162e-05, No Iterations 2
GAMG:  Solving for p, Initial residual = 0.000435465, Final residual = 3.39023e-05, No Iterations 1
GAMG:  Solving for p, Initial residual = 0.000197041, Final residual = 7.59036e-06, No Iterations 2
GAMG:  Solving for p, Initial residual = 0.000126315, Final residual = 1.02645e-05, No Iterations 1
time step continuity errors : sum local = 0.000793568, global = 2.95294e-05, cumulative = -0.18071
ExecutionTime = 169.76 s  ClockTime = 169 s

Time = 1985

smoothSolver:  Solving for Ux, Initial residual = 0.000189016, Final residual = 8.81376e-08, No Iterations 2
smoothSolver:  Solving for Uy, Initial residual = 0.000240753, Final residual = 1.22534e-07, No Iterations 2
smoothSolver:  Solving for Uz, Initial residual = 9.35829e-05, Final residual = 4.17337e-08, No Iterations 2
GAMG:  Solving for p, Initial residual = 0.0029831, Final residual = 0.000219651, No Iterations 1
GAMG:  Solving for p, Initial residual = 0.00097624, Final residual = 3.14354e-05, No Iterations 2
GAMG:  Solving for p, Initial residual = 0.000438889, Final residual = 3.37002e-05, No Iterations 1
GAMG:  Solving for p, Initial residual = 0.000197648, Final residual = 7.61127e-06, No Iterations 2
GAMG:  Solving for p, Initial residual = 0.000126491, Final residual = 1.0135e-05, No Iterations 1
time step continuity errors : sum local = 0.000783519, global = 6.35873e-06, cumulative = -0.180704
ExecutionTime = 169.84 s  ClockTime = 170 s

Time = 1986

smoothSolver:  Solving for Ux, Initial residual = 0.000190053, Final residual = 8.71626e-08, No Iterations 2
smoothSolver:  Solving for Uy, Initial residual = 0.000236622, Final residual = 1.19664e-07, No Iterations 2
smoothSolver:  Solving for Uz, Initial residual = 9.23212e-05, Final residual = 4.20058e-08, No Iterations 2
GAMG:  Solving for p, Initial residual = 0.00299294, Final residual = 0.000217641, No Iterations 1
GAMG:  Solving for p, Initial residual = 0.000977147, Final residual = 9.67661e-05, No Iterations 1
GAMG:  Solving for p, Initial residual = 0.000410541, Final residual = 1.5684e-05, No Iterations 2
GAMG:  Solving for p, Initial residual = 0.000231772, Final residual = 1.94959e-05, No Iterations 1
GAMG:  Solving for p, Initial residual = 0.000116809, Final residual = 4.51753e-06, No Iterations 2
time step continuity errors : sum local = 0.000349297, global = -8.39594e-06, cumulative = -0.180712
ExecutionTime = 169.92 s  ClockTime = 170 s

Time = 1987

smoothSolver:  Solving for Ux, Initial residual = 0.000190543, Final residual = 8.6819e-08, No Iterations 2
smoothSolver:  Solving for Uy, Initial residual = 0.000234926, Final residual = 1.20438e-07, No Iterations 2
smoothSolver:  Solving for Uz, Initial residual = 9.10542e-05, Final residual = 4.18797e-08, No Iterations 2
GAMG:  Solving for p, Initial residual = 0.00295302, Final residual = 0.000211552, No Iterations 1
GAMG:  Solving for p, Initial residual = 0.000961671, Final residual = 9.47865e-05, No Iterations 1
GAMG:  Solving for p, Initial residual = 0.000405638, Final residual = 1.57126e-05, No Iterations 2
GAMG:  Solving for p, Initial residual = 0.000228793, Final residual = 1.9599e-05, No Iterations 1
GAMG:  Solving for p, Initial residual = 0.000116738, Final residual = 4.77047e-06, No Iterations 2
time step continuity errors : sum local = 0.00036884, global = -2.70946e-05, cumulative = -0.180739
ExecutionTime = 170.01 s  ClockTime = 170 s

Time = 1988

smoothSolver:  Solving for Ux, Initial residual = 0.000188427, Final residual = 8.58317e-08, No Iterations 2
smoothSolver:  Solving for Uy, Initial residual = 0.000230149, Final residual = 1.20703e-07, No Iterations 2
smoothSolver:  Solving for Uz, Initial residual = 8.95962e-05, Final residual = 3.98944e-08, No Iterations 2
GAMG:  Solving for p, Initial residual = 0.00295164, Final residual = 0.000210887, No Iterations 1
GAMG:  Solving for p, Initial residual = 0.000974263, Final residual = 9.48252e-05, No Iterations 1
GAMG:  Solving for p, Initial residual = 0.000408172, Final residual = 1.54906e-05, No Iterations 2
GAMG:  Solving for p, Initial residual = 0.000227602, Final residual = 1.95728e-05, No Iterations 1
GAMG:  Solving for p, Initial residual = 0.000116711, Final residual = 4.87784e-06, No Iterations 2
time step continuity errors : sum local = 0.000377192, global = -3.47667e-05, cumulative = -0.180774
ExecutionTime = 170.09 s  ClockTime = 170 s

Time = 1989

smoothSolver:  Solving for Ux, Initial residual = 0.000189294, Final residual = 8.78466e-08, No Iterations 2
smoothSolver:  Solving for Uy, Initial residual = 0.000231092, Final residual = 1.23479e-07, No Iterations 2
smoothSolver:  Solving for Uz, Initial residual = 8.86593e-05, Final residual = 3.87741e-08, No Iterations 2
GAMG:  Solving for p, Initial residual = 0.00295523, Final residual = 0.000215538, No Iterations 1
GAMG:  Solving for p, Initial residual = 0.000985723, Final residual = 9.55898e-05, No Iterations 1
GAMG:  Solving for p, Initial residual = 0.000412184, Final residual = 1.5197e-05, No Iterations 2
GAMG:  Solving for p, Initial residual = 0.000227154, Final residual = 1.92299e-05, No Iterations 1
GAMG:  Solving for p, Initial residual = 0.00011609, Final residual = 4.88846e-06, No Iterations 2
time step continuity errors : sum local = 0.000377961, global = -3.43616e-05, cumulative = -0.180809
ExecutionTime = 170.17 s  ClockTime = 170 s

Time = 1990

smoothSolver:  Solving for Ux, Initial residual = 0.000189143, Final residual = 8.75885e-08, No Iterations 2
smoothSolver:  Solving for Uy, Initial residual = 0.000234763, Final residual = 1.15218e-07, No Iterations 2
smoothSolver:  Solving for Uz, Initial residual = 8.9141e-05, Final residual = 4.10024e-08, No Iterations 2
GAMG:  Solving for p, Initial residual = 0.00301138, Final residual = 0.000226672, No Iterations 1
GAMG:  Solving for p, Initial residual = 0.000997119, Final residual = 9.60116e-05, No Iterations 1
GAMG:  Solving for p, Initial residual = 0.000417436, Final residual = 1.49652e-05, No Iterations 2
GAMG:  Solving for p, Initial residual = 0.000227549, Final residual = 1.92064e-05, No Iterations 1
GAMG:  Solving for p, Initial residual = 0.000116009, Final residual = 4.7095e-06, No Iterations 2
time step continuity errors : sum local = 0.000364152, global = -3.62783e-05, cumulative = -0.180845
ExecutionTime = 170.25 s  ClockTime = 170 s

Time = 1991

smoothSolver:  Solving for Ux, Initial residual = 0.000185832, Final residual = 8.61638e-08, No Iterations 2
smoothSolver:  Solving for Uy, Initial residual = 0.000233495, Final residual = 1.1621e-07, No Iterations 2
smoothSolver:  Solving for Uz, Initial residual = 8.89615e-05, Final residual = 3.9973e-08, No Iterations 2
GAMG:  Solving for p, Initial residual = 0.00306796, Final residual = 0.000232468, No Iterations 1
GAMG:  Solving for p, Initial residual = 0.000999478, Final residual = 9.63466e-05, No Iterations 1
GAMG:  Solving for p, Initial residual = 0.000418293, Final residual = 1.52671e-05, No Iterations 2
GAMG:  Solving for p, Initial residual = 0.000229052, Final residual = 1.95723e-05, No Iterations 1
GAMG:  Solving for p, Initial residual = 0.000116369, Final residual = 4.84372e-06, No Iterations 2
time step continuity errors : sum local = 0.000374523, global = -2.3904e-05, cumulative = -0.180869
ExecutionTime = 170.33 s  ClockTime = 170 s

Time = 1992

smoothSolver:  Solving for Ux, Initial residual = 0.000185435, Final residual = 8.72344e-08, No Iterations 2
smoothSolver:  Solving for Uy, Initial residual = 0.000232684, Final residual = 1.16112e-07, No Iterations 2
smoothSolver:  Solving for Uz, Initial residual = 8.82e-05, Final residual = 3.81676e-08, No Iterations 2
GAMG:  Solving for p, Initial residual = 0.00303916, Final residual = 0.000227799, No Iterations 1
GAMG:  Solving for p, Initial residual = 0.000973413, Final residual = 9.41805e-05, No Iterations 1
GAMG:  Solving for p, Initial residual = 0.000410014, Final residual = 1.56791e-05, No Iterations 2
GAMG:  Solving for p, Initial residual = 0.000231005, Final residual = 1.9919e-05, No Iterations 1
GAMG:  Solving for p, Initial residual = 0.000117298, Final residual = 5.03551e-06, No Iterations 2
time step continuity errors : sum local = 0.000389417, global = -1.20158e-05, cumulative = -0.180881
ExecutionTime = 170.41 s  ClockTime = 170 s

Time = 1993

smoothSolver:  Solving for Ux, Initial residual = 0.000184503, Final residual = 8.7038e-08, No Iterations 2
smoothSolver:  Solving for Uy, Initial residual = 0.000228599, Final residual = 1.11661e-07, No Iterations 2
smoothSolver:  Solving for Uz, Initial residual = 8.82514e-05, Final residual = 3.91823e-08, No Iterations 2
GAMG:  Solving for p, Initial residual = 0.0029285, Final residual = 0.000214972, No Iterations 1
GAMG:  Solving for p, Initial residual = 0.000944809, Final residual = 8.97723e-05, No Iterations 1
GAMG:  Solving for p, Initial residual = 0.000399775, Final residual = 1.57926e-05, No Iterations 2
GAMG:  Solving for p, Initial residual = 0.000230546, Final residual = 2.00173e-05, No Iterations 1
GAMG:  Solving for p, Initial residual = 0.000117322, Final residual = 5.16322e-06, No Iterations 2
time step continuity errors : sum local = 0.00039927, global = -1.77705e-05, cumulative = -0.180899
ExecutionTime = 170.5 s  ClockTime = 170 s

Time = 1994

smoothSolver:  Solving for Ux, Initial residual = 0.000184486, Final residual = 8.59221e-08, No Iterations 2
smoothSolver:  Solving for Uy, Initial residual = 0.000224494, Final residual = 1.09277e-07, No Iterations 2
smoothSolver:  Solving for Uz, Initial residual = 8.77101e-05, Final residual = 4.04802e-08, No Iterations 2
GAMG:  Solving for p, Initial residual = 0.00288417, Final residual = 0.000214552, No Iterations 1
GAMG:  Solving for p, Initial residual = 0.000951462, Final residual = 8.8932e-05, No Iterations 1
GAMG:  Solving for p, Initial residual = 0.000402841, Final residual = 1.54991e-05, No Iterations 2
GAMG:  Solving for p, Initial residual = 0.000234343, Final residual = 1.98383e-05, No Iterations 1
GAMG:  Solving for p, Initial residual = 0.000118815, Final residual = 5.10614e-06, No Iterations 2
time step continuity errors : sum local = 0.000394929, global = -2.85048e-05, cumulative = -0.180927
ExecutionTime = 170.59 s  ClockTime = 170 s

Time = 1995

smoothSolver:  Solving for Ux, Initial residual = 0.000183038, Final residual = 8.72657e-08, No Iterations 2
smoothSolver:  Solving for Uy, Initial residual = 0.000221198, Final residual = 1.08411e-07, No Iterations 2
smoothSolver:  Solving for Uz, Initial residual = 8.79624e-05, Final residual = 4.1055e-08, No Iterations 2
GAMG:  Solving for p, Initial residual = 0.00288519, Final residual = 0.000213801, No Iterations 1
GAMG:  Solving for p, Initial residual = 0.000950888, Final residual = 8.9418e-05, No Iterations 1
GAMG:  Solving for p, Initial residual = 0.000404883, Final residual = 1.53813e-05, No Iterations 2
GAMG:  Solving for p, Initial residual = 0.000236899, Final residual = 1.98161e-05, No Iterations 1
GAMG:  Solving for p, Initial residual = 0.000120374, Final residual = 5.07745e-06, No Iterations 2
time step continuity errors : sum local = 0.000392667, global = -3.47163e-05, cumulative = -0.180962
ExecutionTime = 170.67 s  ClockTime = 170 s

Time = 1996

smoothSolver:  Solving for Ux, Initial residual = 0.000182733, Final residual = 8.79742e-08, No Iterations 2
smoothSolver:  Solving for Uy, Initial residual = 0.000220274, Final residual = 1.1647e-07, No Iterations 2
smoothSolver:  Solving for Uz, Initial residual = 8.67577e-05, Final residual = 3.97402e-08, No Iterations 2
GAMG:  Solving for p, Initial residual = 0.00292411, Final residual = 0.000221275, No Iterations 1
GAMG:  Solving for p, Initial residual = 0.00096844, Final residual = 9.24748e-05, No Iterations 1
GAMG:  Solving for p, Initial residual = 0.000421016, Final residual = 1.56326e-05, No Iterations 2
GAMG:  Solving for p, Initial residual = 0.000245745, Final residual = 2.04554e-05, No Iterations 1
GAMG:  Solving for p, Initial residual = 0.000124553, Final residual = 5.16369e-06, No Iterations 2
time step continuity errors : sum local = 0.000399314, global = -2.95823e-05, cumulative = -0.180991
ExecutionTime = 170.75 s  ClockTime = 170 s

Time = 1997

smoothSolver:  Solving for Ux, Initial residual = 0.00017806, Final residual = 8.47261e-08, No Iterations 2
smoothSolver:  Solving for Uy, Initial residual = 0.000219332, Final residual = 1.12435e-07, No Iterations 2
smoothSolver:  Solving for Uz, Initial residual = 8.57602e-05, Final residual = 4.00702e-08, No Iterations 2
GAMG:  Solving for p, Initial residual = 0.002919, Final residual = 0.000224376, No Iterations 1
GAMG:  Solving for p, Initial residual = 0.000965299, Final residual = 9.24938e-05, No Iterations 1
GAMG:  Solving for p, Initial residual = 0.000423025, Final residual = 1.55366e-05, No Iterations 2
GAMG:  Solving for p, Initial residual = 0.000247377, Final residual = 2.08398e-05, No Iterations 1
GAMG:  Solving for p, Initial residual = 0.000126124, Final residual = 5.44336e-06, No Iterations 2
time step continuity errors : sum local = 0.000420874, global = -3.25686e-05, cumulative = -0.181024
ExecutionTime = 170.84 s  ClockTime = 171 s

Time = 1998

smoothSolver:  Solving for Ux, Initial residual = 0.000176942, Final residual = 8.00293e-08, No Iterations 2
smoothSolver:  Solving for Uy, Initial residual = 0.000219359, Final residual = 1.04825e-07, No Iterations 2
smoothSolver:  Solving for Uz, Initial residual = 8.63287e-05, Final residual = 3.94522e-08, No Iterations 2
GAMG:  Solving for p, Initial residual = 0.00288428, Final residual = 0.000222801, No Iterations 1
GAMG:  Solving for p, Initial residual = 0.000938047, Final residual = 9.00653e-05, No Iterations 1
GAMG:  Solving for p, Initial residual = 0.000414054, Final residual = 1.45577e-05, No Iterations 2
GAMG:  Solving for p, Initial residual = 0.000236281, Final residual = 1.96817e-05, No Iterations 1
GAMG:  Solving for p, Initial residual = 0.000120902, Final residual = 5.16878e-06, No Iterations 2
time step continuity errors : sum local = 0.000399685, global = -3.5113e-05, cumulative = -0.181059
ExecutionTime = 170.92 s  ClockTime = 171 s

Time = 1999

smoothSolver:  Solving for Ux, Initial residual = 0.000175089, Final residual = 8.14045e-08, No Iterations 2
smoothSolver:  Solving for Uy, Initial residual = 0.000219952, Final residual = 1.09768e-07, No Iterations 2
smoothSolver:  Solving for Uz, Initial residual = 8.57037e-05, Final residual = 3.75964e-08, No Iterations 2
GAMG:  Solving for p, Initial residual = 0.00293392, Final residual = 0.000233932, No Iterations 1
GAMG:  Solving for p, Initial residual = 0.000943714, Final residual = 2.85361e-05, No Iterations 2
GAMG:  Solving for p, Initial residual = 0.000444408, Final residual = 3.41745e-05, No Iterations 1
GAMG:  Solving for p, Initial residual = 0.00020168, Final residual = 7.35091e-06, No Iterations 2
GAMG:  Solving for p, Initial residual = 0.000130439, Final residual = 1.05272e-05, No Iterations 1
time step continuity errors : sum local = 0.000813923, global = -7.25582e-05, cumulative = -0.181132
ExecutionTime = 171 s  ClockTime = 171 s

Time = 2000

smoothSolver:  Solving for Ux, Initial residual = 0.00017295, Final residual = 8.03002e-08, No Iterations 2
smoothSolver:  Solving for Uy, Initial residual = 0.000219209, Final residual = 1.13845e-07, No Iterations 2
smoothSolver:  Solving for Uz, Initial residual = 8.47817e-05, Final residual = 3.74125e-08, No Iterations 2
GAMG:  Solving for p, Initial residual = 0.00294633, Final residual = 0.000236993, No Iterations 1
GAMG:  Solving for p, Initial residual = 0.000956868, Final residual = 2.86959e-05, No Iterations 2
GAMG:  Solving for p, Initial residual = 0.00045325, Final residual = 3.41268e-05, No Iterations 1
GAMG:  Solving for p, Initial residual = 0.000203115, Final residual = 7.25734e-06, No Iterations 2
GAMG:  Solving for p, Initial residual = 0.000132155, Final residual = 1.04214e-05, No Iterations 1
time step continuity errors : sum local = 0.000805765, global = -8.08952e-05, cumulative = -0.181212
ExecutionTime = 171.22 s  ClockTime = 171 s

End

