/*---------------------------------------------------------------------------*\
| =========                 |                                                 |
| \\      /  F ield         | OpenFOAM: The Open Source CFD Toolbox           |
|  \\    /   O peration     | Version:  2506                                  |
|   \\  /    A nd           | Website:  www.openfoam.com                      |
|    \\/     M anipulation  |                                                 |
\*---------------------------------------------------------------------------*/
Build  : _615aae61-20250627 OPENFOAM=2506 version=2506
Arch   : "LSB;label=32;scalar=64"
Exec   : simpleFoam -noFunctionObjects -case /home/ubuntu/fan_CFD_dataset/cases/fan_2
Date   : Nov 07 2025
Time   : 15:06:59
Host   : ip-172-31-37-87
PID    : 176469
I/O    : uncollated
Case   : /home/ubuntu/fan_CFD_dataset/cases/fan_2
nProcs : 1
trapFpe: Floating point exception trapping enabled (FOAM_SIGFPE).
fileModificationChecking : Monitoring run-time modified files using timeStampMaster (fileModificationSkew 5, maxFileModificationPolls 20)
allowSystemOperations : Allowing user-supplied system call operations

// * * * * * * * * * * * * * * * * * * * * * * * * * * * * * * * * * * * * * //
Create time

Create mesh for time = 0


SIMPLE: convergence criteria
    field U	 tolerance 1e-05
    field p	 tolerance 0.0001

Reading field p

Reading field U

Reading/calculating face flux field phi

Selecting incompressible transport model Newtonian
Selecting turbulence model type laminar
Selecting laminar stress model Stokes
No MRF models present

No finite volume options present

Starting time loop

Time = 1

smoothSolver:  Solving for Ux, Initial residual = 1, Final residual = 0.000353179, No Iterations 2
smoothSolver:  Solving for Uy, Initial residual = 1, Final residual = 0.000341784, No Iterations 2
smoothSolver:  Solving for Uz, Initial residual = 1, Final residual = 0.000508847, No Iterations 2
GAMG:  Solving for p, Initial residual = 1, Final residual = 0.0650848, No Iterations 4
GAMG:  Solving for p, Initial residual = 0.0909046, Final residual = 0.00616626, No Iterations 1
GAMG:  Solving for p, Initial residual = 0.0306379, Final residual = 0.00287646, No Iterations 1
GAMG:  Solving for p, Initial residual = 0.0180518, Final residual = 0.00169647, No Iterations 1
GAMG:  Solving for p, Initial residual = 0.011617, Final residual = 0.00114242, No Iterations 1
time step continuity errors : sum local = 30.9972, global = -7.76575, cumulative = -7.76575
ExecutionTime = 0.28 s  ClockTime = 0 s

Time = 2

smoothSolver:  Solving for Ux, Initial residual = 0.0473327, Final residual = 2.23222e-05, No Iterations 2
smoothSolver:  Solving for Uy, Initial residual = 0.0479903, Final residual = 2.27893e-05, No Iterations 2
smoothSolver:  Solving for Uz, Initial residual = 0.173042, Final residual = 5.84885e-05, No Iterations 2
GAMG:  Solving for p, Initial residual = 0.224021, Final residual = 0.0196299, No Iterations 4
GAMG:  Solving for p, Initial residual = 0.017745, Final residual = 0.00118826, No Iterations 1
GAMG:  Solving for p, Initial residual = 0.00724257, Final residual = 0.000649024, No Iterations 1
GAMG:  Solving for p, Initial residual = 0.00462995, Final residual = 0.000412202, No Iterations 1
GAMG:  Solving for p, Initial residual = 0.00320118, Final residual = 0.000293718, No Iterations 1
time step continuity errors : sum local = 33.5105, global = -6.03935, cumulative = -13.8051
ExecutionTime = 0.36 s  ClockTime = 0 s

Time = 3

smoothSolver:  Solving for Ux, Initial residual = 0.197876, Final residual = 8.49521e-05, No Iterations 2
smoothSolver:  Solving for Uy, Initial residual = 0.196577, Final residual = 8.3064e-05, No Iterations 2
smoothSolver:  Solving for Uz, Initial residual = 0.404222, Final residual = 0.000154059, No Iterations 2
GAMG:  Solving for p, Initial residual = 0.0209383, Final residual = 0.00209214, No Iterations 3
GAMG:  Solving for p, Initial residual = 0.0190102, Final residual = 0.00122944, No Iterations 1
GAMG:  Solving for p, Initial residual = 0.00741224, Final residual = 0.000678212, No Iterations 1
GAMG:  Solving for p, Initial residual = 0.00506751, Final residual = 0.000442733, No Iterations 1
GAMG:  Solving for p, Initial residual = 0.00345926, Final residual = 0.000324183, No Iterations 1
time step continuity errors : sum local = 20.2134, global = -3.00135, cumulative = -16.8065
ExecutionTime = 0.46 s  ClockTime = 0 s

Time = 4

smoothSolver:  Solving for Ux, Initial residual = 0.179708, Final residual = 7.54661e-05, No Iterations 2
smoothSolver:  Solving for Uy, Initial residual = 0.179814, Final residual = 7.51364e-05, No Iterations 2
smoothSolver:  Solving for Uz, Initial residual = 0.414883, Final residual = 0.000161486, No Iterations 2
GAMG:  Solving for p, Initial residual = 0.0104117, Final residual = 0.00052006, No Iterations 2
GAMG:  Solving for p, Initial residual = 0.00777927, Final residual = 0.000523152, No Iterations 1
GAMG:  Solving for p, Initial residual = 0.00381467, Final residual = 0.000359699, No Iterations 1
GAMG:  Solving for p, Initial residual = 0.00295663, Final residual = 0.000262071, No Iterations 1
GAMG:  Solving for p, Initial residual = 0.00214941, Final residual = 0.000202747, No Iterations 1
time step continuity errors : sum local = 9.11767, global = -1.39706, cumulative = -18.2035
ExecutionTime = 0.53 s  ClockTime = 0 s

Time = 5

smoothSolver:  Solving for Ux, Initial residual = 0.137693, Final residual = 5.84876e-05, No Iterations 2
smoothSolver:  Solving for Uy, Initial residual = 0.138664, Final residual = 5.80722e-05, No Iterations 2
smoothSolver:  Solving for Uz, Initial residual = 0.353106, Final residual = 0.000139031, No Iterations 2
GAMG:  Solving for p, Initial residual = 0.010282, Final residual = 0.000694818, No Iterations 2
GAMG:  Solving for p, Initial residual = 0.0163904, Final residual = 0.00113673, No Iterations 1
GAMG:  Solving for p, Initial residual = 0.00761782, Final residual = 0.000691108, No Iterations 1
GAMG:  Solving for p, Initial residual = 0.00603303, Final residual = 0.000513283, No Iterations 1
GAMG:  Solving for p, Initial residual = 0.00423904, Final residual = 0.000384927, No Iterations 1
time step continuity errors : sum local = 5.84891, global = 1.0793, cumulative = -17.1242
ExecutionTime = 0.62 s  ClockTime = 0 s

Time = 6

smoothSolver:  Solving for Ux, Initial residual = 0.0968118, Final residual = 4.36382e-05, No Iterations 2
smoothSolver:  Solving for Uy, Initial residual = 0.0983836, Final residual = 4.33733e-05, No Iterations 2
smoothSolver:  Solving for Uz, Initial residual = 0.259399, Final residual = 0.000104354, No Iterations 2
GAMG:  Solving for p, Initial residual = 0.0125823, Final residual = 0.00100951, No Iterations 3
GAMG:  Solving for p, Initial residual = 0.0723988, Final residual = 0.00473837, No Iterations 1
GAMG:  Solving for p, Initial residual = 0.0276182, Final residual = 0.00248519, No Iterations 1
GAMG:  Solving for p, Initial residual = 0.0157667, Final residual = 0.00138425, No Iterations 1
GAMG:  Solving for p, Initial residual = 0.00960401, Final residual = 0.00088435, No Iterations 1
time step continuity errors : sum local = 12.1315, global = 1.90559, cumulative = -15.2186
ExecutionTime = 0.7 s  ClockTime = 1 s

Time = 7

smoothSolver:  Solving for Ux, Initial residual = 0.0615917, Final residual = 2.96434e-05, No Iterations 2
smoothSolver:  Solving for Uy, Initial residual = 0.0635507, Final residual = 3.00159e-05, No Iterations 2
smoothSolver:  Solving for Uz, Initial residual = 0.159834, Final residual = 6.96167e-05, No Iterations 2
GAMG:  Solving for p, Initial residual = 0.0172169, Final residual = 0.00168296, No Iterations 3
GAMG:  Solving for p, Initial residual = 0.0385287, Final residual = 0.00251121, No Iterations 1
GAMG:  Solving for p, Initial residual = 0.014784, Final residual = 0.0013466, No Iterations 1
GAMG:  Solving for p, Initial residual = 0.00936448, Final residual = 0.000820729, No Iterations 1
GAMG:  Solving for p, Initial residual = 0.0060957, Final residual = 0.000564554, No Iterations 1
time step continuity errors : sum local = 16.6556, global = 2.63077, cumulative = -12.5879
ExecutionTime = 0.79 s  ClockTime = 1 s

Time = 8

smoothSolver:  Solving for Ux, Initial residual = 0.0370539, Final residual = 1.95931e-05, No Iterations 2
smoothSolver:  Solving for Uy, Initial residual = 0.0382977, Final residual = 2.01517e-05, No Iterations 2
smoothSolver:  Solving for Uz, Initial residual = 0.0780155, Final residual = 4.1352e-05, No Iterations 2
GAMG:  Solving for p, Initial residual = 0.0322482, Final residual = 0.00302081, No Iterations 3
GAMG:  Solving for p, Initial residual = 0.0299243, Final residual = 0.00195044, No Iterations 1
GAMG:  Solving for p, Initial residual = 0.0117466, Final residual = 0.00107111, No Iterations 1
GAMG:  Solving for p, Initial residual = 0.0076963, Final residual = 0.000680173, No Iterations 1
GAMG:  Solving for p, Initial residual = 0.00517057, Final residual = 0.000481097, No Iterations 1
time step continuity errors : sum local = 17.2633, global = 3.01809, cumulative = -9.56978
ExecutionTime = 0.88 s  ClockTime = 1 s

Time = 9

smoothSolver:  Solving for Ux, Initial residual = 0.0300714, Final residual = 1.73426e-05, No Iterations 2
smoothSolver:  Solving for Uy, Initial residual = 0.0295527, Final residual = 1.75259e-05, No Iterations 2
smoothSolver:  Solving for Uz, Initial residual = 0.0576121, Final residual = 3.27812e-05, No Iterations 2
GAMG:  Solving for p, Initial residual = 0.164514, Final residual = 0.0108508, No Iterations 3
GAMG:  Solving for p, Initial residual = 0.024719, Final residual = 0.00161411, No Iterations 1
GAMG:  Solving for p, Initial residual = 0.010113, Final residual = 0.000925018, No Iterations 1
GAMG:  Solving for p, Initial residual = 0.00682898, Final residual = 0.000607811, No Iterations 1
GAMG:  Solving for p, Initial residual = 0.00469694, Final residual = 0.000440283, No Iterations 1
time step continuity errors : sum local = 14.8692, global = 2.64914, cumulative = -6.92064
ExecutionTime = 0.96 s  ClockTime = 1 s

Time = 10

smoothSolver:  Solving for Ux, Initial residual = 0.0368269, Final residual = 1.95908e-05, No Iterations 2
smoothSolver:  Solving for Uy, Initial residual = 0.0352182, Final residual = 1.95153e-05, No Iterations 2
smoothSolver:  Solving for Uz, Initial residual = 0.0945475, Final residual = 4.39885e-05, No Iterations 2
GAMG:  Solving for p, Initial residual = 0.0402736, Final residual = 0.00231675, No Iterations 2
GAMG:  Solving for p, Initial residual = 0.0190913, Final residual = 0.00129223, No Iterations 1
GAMG:  Solving for p, Initial residual = 0.00903286, Final residual = 0.000854377, No Iterations 1
GAMG:  Solving for p, Initial residual = 0.00666839, Final residual = 0.000587224, No Iterations 1
GAMG:  Solving for p, Initial residual = 0.00463675, Final residual = 0.000437587, No Iterations 1
time step continuity errors : sum local = 11.1966, global = 1.88602, cumulative = -5.03462
ExecutionTime = 1.05 s  ClockTime = 1 s

Time = 11

smoothSolver:  Solving for Ux, Initial residual = 0.0452417, Final residual = 2.17607e-05, No Iterations 2
smoothSolver:  Solving for Uy, Initial residual = 0.0435365, Final residual = 2.15401e-05, No Iterations 2
smoothSolver:  Solving for Uz, Initial residual = 0.131008, Final residual = 5.48576e-05, No Iterations 2
GAMG:  Solving for p, Initial residual = 0.0296012, Final residual = 0.00289281, No Iterations 1
GAMG:  Solving for p, Initial residual = 0.0147277, Final residual = 0.000586999, No Iterations 2
GAMG:  Solving for p, Initial residual = 0.0110564, Final residual = 0.000793531, No Iterations 1
GAMG:  Solving for p, Initial residual = 0.00633985, Final residual = 0.000598958, No Iterations 1
GAMG:  Solving for p, Initial residual = 0.00480923, Final residual = 0.000447997, No Iterations 1
time step continuity errors : sum local = 6.72296, global = 1.00414, cumulative = -4.03048
ExecutionTime = 1.13 s  ClockTime = 1 s

Time = 12

smoothSolver:  Solving for Ux, Initial residual = 0.0488449, Final residual = 2.24369e-05, No Iterations 2
smoothSolver:  Solving for Uy, Initial residual = 0.0479401, Final residual = 2.25213e-05, No Iterations 2
smoothSolver:  Solving for Uz, Initial residual = 0.144061, Final residual = 5.8604e-05, No Iterations 2
GAMG:  Solving for p, Initial residual = 0.027972, Final residual = 0.00125672, No Iterations 2
GAMG:  Solving for p, Initial residual = 0.0419326, Final residual = 0.00282284, No Iterations 1
GAMG:  Solving for p, Initial residual = 0.0198842, Final residual = 0.00181157, No Iterations 1
GAMG:  Solving for p, Initial residual = 0.0148679, Final residual = 0.00139342, No Iterations 1
GAMG:  Solving for p, Initial residual = 0.0112116, Final residual = 0.00110512, No Iterations 1
time step continuity errors : sum local = 5.47179, global = -0.998078, cumulative = -5.02856
ExecutionTime = 1.21 s  ClockTime = 1 s

Time = 13

smoothSolver:  Solving for Ux, Initial residual = 0.0465041, Final residual = 2.16444e-05, No Iterations 2
smoothSolver:  Solving for Uy, Initial residual = 0.046943, Final residual = 2.20478e-05, No Iterations 2
smoothSolver:  Solving for Uz, Initial residual = 0.130464, Final residual = 5.36228e-05, No Iterations 2
GAMG:  Solving for p, Initial residual = 0.0295014, Final residual = 0.00191229, No Iterations 2
GAMG:  Solving for p, Initial residual = 0.0934357, Final residual = 0.00618837, No Iterations 1
GAMG:  Solving for p, Initial residual = 0.0353271, Final residual = 0.00323828, No Iterations 1
GAMG:  Solving for p, Initial residual = 0.0193585, Final residual = 0.00166075, No Iterations 1
GAMG:  Solving for p, Initial residual = 0.0112371, Final residual = 0.00103205, No Iterations 1
time step continuity errors : sum local = 6.44318, global = -1.34628, cumulative = -6.37484
ExecutionTime = 1.29 s  ClockTime = 1 s

Time = 14

smoothSolver:  Solving for Ux, Initial residual = 0.0389925, Final residual = 1.95552e-05, No Iterations 2
smoothSolver:  Solving for Uy, Initial residual = 0.0405483, Final residual = 2.01823e-05, No Iterations 2
smoothSolver:  Solving for Uz, Initial residual = 0.0932552, Final residual = 4.19493e-05, No Iterations 2
GAMG:  Solving for p, Initial residual = 0.0361877, Final residual = 0.00289941, No Iterations 2
GAMG:  Solving for p, Initial residual = 0.0425128, Final residual = 0.00285989, No Iterations 1
GAMG:  Solving for p, Initial residual = 0.0172543, Final residual = 0.00162939, No Iterations 1
GAMG:  Solving for p, Initial residual = 0.0110711, Final residual = 0.000938754, No Iterations 1
GAMG:  Solving for p, Initial residual = 0.00669756, Final residual = 0.000615101, No Iterations 1
time step continuity errors : sum local = 7.65891, global = -1.39172, cumulative = -7.76656
ExecutionTime = 1.38 s  ClockTime = 1 s

Time = 15

smoothSolver:  Solving for Ux, Initial residual = 0.0319856, Final residual = 1.70975e-05, No Iterations 2
smoothSolver:  Solving for Uy, Initial residual = 0.033243, Final residual = 1.75217e-05, No Iterations 2
smoothSolver:  Solving for Uz, Initial residual = 0.0568808, Final residual = 3.05632e-05, No Iterations 2
GAMG:  Solving for p, Initial residual = 0.0626328, Final residual = 0.00525822, No Iterations 2
GAMG:  Solving for p, Initial residual = 0.0306784, Final residual = 0.00209898, No Iterations 1
GAMG:  Solving for p, Initial residual = 0.0129635, Final residual = 0.00125013, No Iterations 1
GAMG:  Solving for p, Initial residual = 0.00893264, Final residual = 0.000769265, No Iterations 1
GAMG:  Solving for p, Initial residual = 0.00563525, Final residual = 0.000525887, No Iterations 1
time step continuity errors : sum local = 7.97936, global = -1.43987, cumulative = -9.20643
ExecutionTime = 1.46 s  ClockTime = 1 s

Time = 16

smoothSolver:  Solving for Ux, Initial residual = 0.029097, Final residual = 1.58331e-05, No Iterations 2
smoothSolver:  Solving for Uy, Initial residual = 0.0293901, Final residual = 1.58222e-05, No Iterations 2
smoothSolver:  Solving for Uz, Initial residual = 0.0514103, Final residual = 2.78718e-05, No Iterations 2
GAMG:  Solving for p, Initial residual = 0.163552, Final residual = 0.0115988, No Iterations 2
GAMG:  Solving for p, Initial residual = 0.0243853, Final residual = 0.00170483, No Iterations 1
GAMG:  Solving for p, Initial residual = 0.010794, Final residual = 0.00105933, No Iterations 1
GAMG:  Solving for p, Initial residual = 0.00780205, Final residual = 0.000689436, No Iterations 1
GAMG:  Solving for p, Initial residual = 0.00514877, Final residual = 0.000488842, No Iterations 1
time step continuity errors : sum local = 7.14433, global = -1.27439, cumulative = -10.4808
ExecutionTime = 1.55 s  ClockTime = 1 s

Time = 17

smoothSolver:  Solving for Ux, Initial residual = 0.0286056, Final residual = 1.52518e-05, No Iterations 2
smoothSolver:  Solving for Uy, Initial residual = 0.028281, Final residual = 1.51028e-05, No Iterations 2
smoothSolver:  Solving for Uz, Initial residual = 0.0656372, Final residual = 3.05043e-05, No Iterations 2
GAMG:  Solving for p, Initial residual = 0.0487583, Final residual = 0.00277432, No Iterations 2
GAMG:  Solving for p, Initial residual = 0.0205237, Final residual = 0.0014822, No Iterations 1
GAMG:  Solving for p, Initial residual = 0.00963487, Final residual = 0.000445097, No Iterations 2
GAMG:  Solving for p, Initial residual = 0.00838758, Final residual = 0.000577184, No Iterations 1
GAMG:  Solving for p, Initial residual = 0.00457045, Final residual = 0.000435053, No Iterations 1
time step continuity errors : sum local = 5.2067, global = -0.84161, cumulative = -11.3224
ExecutionTime = 1.63 s  ClockTime = 1 s

Time = 18

smoothSolver:  Solving for Ux, Initial residual = 0.0277246, Final residual = 1.45587e-05, No Iterations 2
smoothSolver:  Solving for Uy, Initial residual = 0.0274506, Final residual = 1.43907e-05, No Iterations 2
smoothSolver:  Solving for Uz, Initial residual = 0.0736314, Final residual = 3.15318e-05, No Iterations 2
GAMG:  Solving for p, Initial residual = 0.0339, Final residual = 0.00148633, No Iterations 2
GAMG:  Solving for p, Initial residual = 0.021995, Final residual = 0.00166362, No Iterations 1
GAMG:  Solving for p, Initial residual = 0.0109952, Final residual = 0.000456292, No Iterations 2
GAMG:  Solving for p, Initial residual = 0.00901471, Final residual = 0.000645619, No Iterations 1
GAMG:  Solving for p, Initial residual = 0.00527591, Final residual = 0.000510267, No Iterations 1
time step continuity errors : sum local = 3.774, global = -0.458289, cumulative = -11.7807
ExecutionTime = 1.72 s  ClockTime = 2 s

Time = 19

smoothSolver:  Solving for Ux, Initial residual = 0.0253818, Final residual = 1.32614e-05, No Iterations 2
smoothSolver:  Solving for Uy, Initial residual = 0.0254948, Final residual = 1.32196e-05, No Iterations 2
smoothSolver:  Solving for Uz, Initial residual = 0.0691712, Final residual = 2.91771e-05, No Iterations 2
GAMG:  Solving for p, Initial residual = 0.0299036, Final residual = 0.00150343, No Iterations 2
GAMG:  Solving for p, Initial residual = 0.0412219, Final residual = 0.00288775, No Iterations 1
GAMG:  Solving for p, Initial residual = 0.0197361, Final residual = 0.0019224, No Iterations 1
GAMG:  Solving for p, Initial residual = 0.0147614, Final residual = 0.00143271, No Iterations 1
GAMG:  Solving for p, Initial residual = 0.0109797, Final residual = 0.00048159, No Iterations 2
time step continuity errors : sum local = 1.55674, global = 0.0139765, cumulative = -11.7667
ExecutionTime = 1.8 s  ClockTime = 2 s

Time = 20

smoothSolver:  Solving for Ux, Initial residual = 0.0221917, Final residual = 1.19436e-05, No Iterations 2
smoothSolver:  Solving for Uy, Initial residual = 0.0226429, Final residual = 1.20378e-05, No Iterations 2
smoothSolver:  Solving for Uz, Initial residual = 0.0561963, Final residual = 2.44569e-05, No Iterations 2
GAMG:  Solving for p, Initial residual = 0.0301732, Final residual = 0.00183646, No Iterations 2
GAMG:  Solving for p, Initial residual = 0.180715, Final residual = 0.011984, No Iterations 1
GAMG:  Solving for p, Initial residual = 0.065167, Final residual = 0.00603306, No Iterations 1
GAMG:  Solving for p, Initial residual = 0.0334157, Final residual = 0.00306036, No Iterations 1
GAMG:  Solving for p, Initial residual = 0.0198812, Final residual = 0.00192625, No Iterations 1
time step continuity errors : sum local = 3.55652, global = 0.791256, cumulative = -10.9755
ExecutionTime = 1.89 s  ClockTime = 2 s

Time = 21

smoothSolver:  Solving for Ux, Initial residual = 0.0193681, Final residual = 1.06671e-05, No Iterations 2
smoothSolver:  Solving for Uy, Initial residual = 0.0197815, Final residual = 1.07927e-05, No Iterations 2
smoothSolver:  Solving for Uz, Initial residual = 0.0405401, Final residual = 1.90855e-05, No Iterations 2
GAMG:  Solving for p, Initial residual = 0.0341947, Final residual = 0.00235087, No Iterations 2
GAMG:  Solving for p, Initial residual = 0.056503, Final residual = 0.00376549, No Iterations 1
GAMG:  Solving for p, Initial residual = 0.0226812, Final residual = 0.00210458, No Iterations 1
GAMG:  Solving for p, Initial residual = 0.0139861, Final residual = 0.00122191, No Iterations 1
GAMG:  Solving for p, Initial residual = 0.00866154, Final residual = 0.000809118, No Iterations 1
time step continuity errors : sum local = 3.55741, global = 0.789215, cumulative = -10.1863
ExecutionTime = 1.97 s  ClockTime = 2 s

Time = 22

smoothSolver:  Solving for Ux, Initial residual = 0.0176247, Final residual = 9.68697e-06, No Iterations 2
smoothSolver:  Solving for Uy, Initial residual = 0.0177439, Final residual = 9.6961e-06, No Iterations 2
smoothSolver:  Solving for Uz, Initial residual = 0.0286565, Final residual = 1.48022e-05, No Iterations 2
GAMG:  Solving for p, Initial residual = 0.0477376, Final residual = 0.00322775, No Iterations 2
GAMG:  Solving for p, Initial residual = 0.0375448, Final residual = 0.00256218, No Iterations 1
GAMG:  Solving for p, Initial residual = 0.0156029, Final residual = 0.00148723, No Iterations 1
GAMG:  Solving for p, Initial residual = 0.0103316, Final residual = 0.000897269, No Iterations 1
GAMG:  Solving for p, Initial residual = 0.00648181, Final residual = 0.00060593, No Iterations 1
time step continuity errors : sum local = 3.39991, global = 0.678815, cumulative = -9.50746
ExecutionTime = 2.06 s  ClockTime = 2 s

Time = 23

smoothSolver:  Solving for Ux, Initial residual = 0.0168064, Final residual = 8.97265e-06, No Iterations 2
smoothSolver:  Solving for Uy, Initial residual = 0.016625, Final residual = 8.9707e-06, No Iterations 2
smoothSolver:  Solving for Uz, Initial residual = 0.0250699, Final residual = 1.29945e-05, No Iterations 2
GAMG:  Solving for p, Initial residual = 0.100992, Final residual = 0.0057977, No Iterations 2
GAMG:  Solving for p, Initial residual = 0.0298723, Final residual = 0.00209971, No Iterations 1
GAMG:  Solving for p, Initial residual = 0.0127715, Final residual = 0.00126887, No Iterations 1
GAMG:  Solving for p, Initial residual = 0.00895435, Final residual = 0.000792931, No Iterations 1
GAMG:  Solving for p, Initial residual = 0.00574281, Final residual = 0.000551423, No Iterations 1
time step continuity errors : sum local = 3.03157, global = 0.547935, cumulative = -8.95952
ExecutionTime = 2.14 s  ClockTime = 2 s

Time = 24

smoothSolver:  Solving for Ux, Initial residual = 0.0163092, Final residual = 8.33051e-06, No Iterations 2
smoothSolver:  Solving for Uy, Initial residual = 0.0159289, Final residual = 8.35839e-06, No Iterations 2
smoothSolver:  Solving for Uz, Initial residual = 0.0271455, Final residual = 1.29245e-05, No Iterations 2
GAMG:  Solving for p, Initial residual = 0.10435, Final residual = 0.00539123, No Iterations 2
GAMG:  Solving for p, Initial residual = 0.0286907, Final residual = 0.0021054, No Iterations 1
GAMG:  Solving for p, Initial residual = 0.0127426, Final residual = 0.000583317, No Iterations 2
GAMG:  Solving for p, Initial residual = 0.0102248, Final residual = 0.000714719, No Iterations 1
GAMG:  Solving for p, Initial residual = 0.00545593, Final residual = 0.00052598, No Iterations 1
time step continuity errors : sum local = 2.35364, global = 0.403783, cumulative = -8.55574
ExecutionTime = 2.23 s  ClockTime = 2 s

Time = 25

smoothSolver:  Solving for Ux, Initial residual = 0.0157102, Final residual = 7.86243e-06, No Iterations 2
smoothSolver:  Solving for Uy, Initial residual = 0.0153287, Final residual = 7.8839e-06, No Iterations 2
smoothSolver:  Solving for Uz, Initial residual = 0.0289583, Final residual = 1.29955e-05, No Iterations 2
GAMG:  Solving for p, Initial residual = 0.0608235, Final residual = 0.00270179, No Iterations 2
GAMG:  Solving for p, Initial residual = 0.0360148, Final residual = 0.00277419, No Iterations 1
GAMG:  Solving for p, Initial residual = 0.0167797, Final residual = 0.000704983, No Iterations 2
GAMG:  Solving for p, Initial residual = 0.012668, Final residual = 0.000921787, No Iterations 1
GAMG:  Solving for p, Initial residual = 0.00717961, Final residual = 0.000705272, No Iterations 1
time step continuity errors : sum local = 1.90205, global = 0.250017, cumulative = -8.30572
ExecutionTime = 2.31 s  ClockTime = 2 s

Time = 26

smoothSolver:  Solving for Ux, Initial residual = 0.0148424, Final residual = 7.44399e-06, No Iterations 2
smoothSolver:  Solving for Uy, Initial residual = 0.0146035, Final residual = 7.4399e-06, No Iterations 2
smoothSolver:  Solving for Uz, Initial residual = 0.0279032, Final residual = 1.25046e-05, No Iterations 2
GAMG:  Solving for p, Initial residual = 0.0527583, Final residual = 0.00250869, No Iterations 2
GAMG:  Solving for p, Initial residual = 0.0690839, Final residual = 0.00514638, No Iterations 1
GAMG:  Solving for p, Initial residual = 0.0339106, Final residual = 0.00144465, No Iterations 2
GAMG:  Solving for p, Initial residual = 0.0320491, Final residual = 0.00229756, No Iterations 1
GAMG:  Solving for p, Initial residual = 0.0179038, Final residual = 0.00173595, No Iterations 1
time step continuity errors : sum local = 1.71796, global = -0.0135938, cumulative = -8.31932
ExecutionTime = 2.4 s  ClockTime = 2 s

Time = 27

smoothSolver:  Solving for Ux, Initial residual = 0.0139927, Final residual = 7.10715e-06, No Iterations 2
smoothSolver:  Solving for Uy, Initial residual = 0.0139047, Final residual = 7.0583e-06, No Iterations 2
smoothSolver:  Solving for Uz, Initial residual = 0.0246722, Final residual = 1.14192e-05, No Iterations 2
GAMG:  Solving for p, Initial residual = 0.0555288, Final residual = 0.00290467, No Iterations 2
GAMG:  Solving for p, Initial residual = 0.0727718, Final residual = 0.00507186, No Iterations 1
GAMG:  Solving for p, Initial residual = 0.0304634, Final residual = 0.0029564, No Iterations 1
GAMG:  Solving for p, Initial residual = 0.0195019, Final residual = 0.00187558, No Iterations 1
GAMG:  Solving for p, Initial residual = 0.013147, Final residual = 0.000596489, No Iterations 2
time step continuity errors : sum local = 0.849561, global = -0.0361289, cumulative = -8.35545
ExecutionTime = 2.49 s  ClockTime = 2 s

Time = 28

smoothSolver:  Solving for Ux, Initial residual = 0.01337, Final residual = 6.83382e-06, No Iterations 2
smoothSolver:  Solving for Uy, Initial residual = 0.0133527, Final residual = 6.81497e-06, No Iterations 2
smoothSolver:  Solving for Uz, Initial residual = 0.0209904, Final residual = 1.03103e-05, No Iterations 2
GAMG:  Solving for p, Initial residual = 0.0706586, Final residual = 0.00374729, No Iterations 2
GAMG:  Solving for p, Initial residual = 0.0413368, Final residual = 0.00280209, No Iterations 1
GAMG:  Solving for p, Initial residual = 0.0173137, Final residual = 0.0016444, No Iterations 1
GAMG:  Solving for p, Initial residual = 0.0114275, Final residual = 0.00105607, No Iterations 1
GAMG:  Solving for p, Initial residual = 0.00758329, Final residual = 0.00073953, No Iterations 1
time step continuity errors : sum local = 1.78562, global = -0.394129, cumulative = -8.74958
ExecutionTime = 2.57 s  ClockTime = 2 s

Time = 29

smoothSolver:  Solving for Ux, Initial residual = 0.012986, Final residual = 6.66916e-06, No Iterations 2
smoothSolver:  Solving for Uy, Initial residual = 0.0129311, Final residual = 6.58778e-06, No Iterations 2
smoothSolver:  Solving for Uz, Initial residual = 0.018708, Final residual = 9.48371e-06, No Iterations 2
GAMG:  Solving for p, Initial residual = 0.120496, Final residual = 0.00608525, No Iterations 2
GAMG:  Solving for p, Initial residual = 0.0308965, Final residual = 0.00210676, No Iterations 1
GAMG:  Solving for p, Initial residual = 0.0130165, Final residual = 0.00125372, No Iterations 1
GAMG:  Solving for p, Initial residual = 0.00891414, Final residual = 0.000807657, No Iterations 1
GAMG:  Solving for p, Initial residual = 0.00585735, Final residual = 0.000565379, No Iterations 1
time step continuity errors : sum local = 1.63408, global = -0.357709, cumulative = -9.10728
ExecutionTime = 2.66 s  ClockTime = 3 s

Time = 30

smoothSolver:  Solving for Ux, Initial residual = 0.0127018, Final residual = 6.52684e-06, No Iterations 2
smoothSolver:  Solving for Uy, Initial residual = 0.012592, Final residual = 6.40887e-06, No Iterations 2
smoothSolver:  Solving for Uz, Initial residual = 0.0181895, Final residual = 9.17712e-06, No Iterations 2
GAMG:  Solving for p, Initial residual = 0.103915, Final residual = 0.00490166, No Iterations 2
GAMG:  Solving for p, Initial residual = 0.0258236, Final residual = 0.00180592, No Iterations 1
GAMG:  Solving for p, Initial residual = 0.0110669, Final residual = 0.00110521, No Iterations 1
GAMG:  Solving for p, Initial residual = 0.00785062, Final residual = 0.000708933, No Iterations 1
GAMG:  Solving for p, Initial residual = 0.00514972, Final residual = 0.000501007, No Iterations 1
time step continuity errors : sum local = 1.43604, global = -0.280455, cumulative = -9.38774
ExecutionTime = 2.74 s  ClockTime = 3 s

Time = 31

smoothSolver:  Solving for Ux, Initial residual = 0.0123501, Final residual = 6.38496e-06, No Iterations 2
smoothSolver:  Solving for Uy, Initial residual = 0.0122172, Final residual = 6.23924e-06, No Iterations 2
smoothSolver:  Solving for Uz, Initial residual = 0.0185687, Final residual = 9.12702e-06, No Iterations 2
GAMG:  Solving for p, Initial residual = 0.0629074, Final residual = 0.00259465, No Iterations 2
GAMG:  Solving for p, Initial residual = 0.0243763, Final residual = 0.00176712, No Iterations 1
GAMG:  Solving for p, Initial residual = 0.0107613, Final residual = 0.000474332, No Iterations 2
GAMG:  Solving for p, Initial residual = 0.00861045, Final residual = 0.000598544, No Iterations 1
GAMG:  Solving for p, Initial residual = 0.00455567, Final residual = 0.000437492, No Iterations 1
time step continuity errors : sum local = 1.10975, global = -0.207524, cumulative = -9.59526
ExecutionTime = 2.82 s  ClockTime = 3 s

Time = 32

smoothSolver:  Solving for Ux, Initial residual = 0.0118868, Final residual = 6.19069e-06, No Iterations 2
smoothSolver:  Solving for Uy, Initial residual = 0.0117614, Final residual = 6.0444e-06, No Iterations 2
smoothSolver:  Solving for Uz, Initial residual = 0.0187705, Final residual = 8.99967e-06, No Iterations 2
GAMG:  Solving for p, Initial residual = 0.0489904, Final residual = 0.00183272, No Iterations 2
GAMG:  Solving for p, Initial residual = 0.0255963, Final residual = 0.00193041, No Iterations 1
GAMG:  Solving for p, Initial residual = 0.0117117, Final residual = 0.000475887, No Iterations 2
GAMG:  Solving for p, Initial residual = 0.00899503, Final residual = 0.000650336, No Iterations 1
GAMG:  Solving for p, Initial residual = 0.00503502, Final residual = 0.000494791, No Iterations 1
time step continuity errors : sum local = 0.948912, global = -0.137186, cumulative = -9.73245
ExecutionTime = 2.9 s  ClockTime = 3 s

Time = 33

smoothSolver:  Solving for Ux, Initial residual = 0.0113972, Final residual = 5.96943e-06, No Iterations 2
smoothSolver:  Solving for Uy, Initial residual = 0.0113059, Final residual = 5.84685e-06, No Iterations 2
smoothSolver:  Solving for Uz, Initial residual = 0.0182161, Final residual = 8.73976e-06, No Iterations 2
GAMG:  Solving for p, Initial residual = 0.0438221, Final residual = 0.0016813, No Iterations 2
GAMG:  Solving for p, Initial residual = 0.0301733, Final residual = 0.00226402, No Iterations 1
GAMG:  Solving for p, Initial residual = 0.0142006, Final residual = 0.000586549, No Iterations 2
GAMG:  Solving for p, Initial residual = 0.011973, Final residual = 0.000878872, No Iterations 1
GAMG:  Solving for p, Initial residual = 0.00678471, Final residual = 0.00067694, No Iterations 1
time step continuity errors : sum local = 0.90583, global = -0.0135851, cumulative = -9.74603
ExecutionTime = 2.99 s  ClockTime = 3 s

Time = 34

smoothSolver:  Solving for Ux, Initial residual = 0.0109721, Final residual = 5.73231e-06, No Iterations 2
smoothSolver:  Solving for Uy, Initial residual = 0.0109064, Final residual = 5.63467e-06, No Iterations 2
smoothSolver:  Solving for Uz, Initial residual = 0.0169994, Final residual = 8.27579e-06, No Iterations 2
GAMG:  Solving for p, Initial residual = 0.0431279, Final residual = 0.00177789, No Iterations 2
GAMG:  Solving for p, Initial residual = 0.0428685, Final residual = 0.00310813, No Iterations 1
GAMG:  Solving for p, Initial residual = 0.0202112, Final residual = 0.000890932, No Iterations 2
GAMG:  Solving for p, Initial residual = 0.0201909, Final residual = 0.00145279, No Iterations 1
GAMG:  Solving for p, Initial residual = 0.0112232, Final residual = 0.000469981, No Iterations 2
time step continuity errors : sum local = 0.386115, global = 0.00852803, cumulative = -9.73751
ExecutionTime = 3.09 s  ClockTime = 3 s

Time = 35

smoothSolver:  Solving for Ux, Initial residual = 0.0106787, Final residual = 5.5744e-06, No Iterations 2
smoothSolver:  Solving for Uy, Initial residual = 0.0106021, Final residual = 5.45856e-06, No Iterations 2
smoothSolver:  Solving for Uz, Initial residual = 0.0156354, Final residual = 8.05185e-06, No Iterations 2
GAMG:  Solving for p, Initial residual = 0.0457314, Final residual = 0.00444355, No Iterations 1
GAMG:  Solving for p, Initial residual = 0.0293071, Final residual = 0.00156459, No Iterations 2
GAMG:  Solving for p, Initial residual = 0.0497682, Final residual = 0.0034531, No Iterations 1
GAMG:  Solving for p, Initial residual = 0.0256566, Final residual = 0.0025308, No Iterations 1
GAMG:  Solving for p, Initial residual = 0.0197615, Final residual = 0.000916557, No Iterations 2
time step continuity errors : sum local = 0.473791, global = 0.0222287, cumulative = -9.71528
ExecutionTime = 3.17 s  ClockTime = 3 s

Time = 36

smoothSolver:  Solving for Ux, Initial residual = 0.010483, Final residual = 5.5156e-06, No Iterations 2
smoothSolver:  Solving for Uy, Initial residual = 0.0103804, Final residual = 5.33997e-06, No Iterations 2
smoothSolver:  Solving for Uz, Initial residual = 0.0145928, Final residual = 7.67191e-06, No Iterations 2
GAMG:  Solving for p, Initial residual = 0.0515713, Final residual = 0.00487514, No Iterations 1
GAMG:  Solving for p, Initial residual = 0.0314557, Final residual = 0.00164239, No Iterations 2
GAMG:  Solving for p, Initial residual = 0.0450747, Final residual = 0.00310167, No Iterations 1
GAMG:  Solving for p, Initial residual = 0.0210819, Final residual = 0.00207891, No Iterations 1
GAMG:  Solving for p, Initial residual = 0.0140621, Final residual = 0.00139816, No Iterations 1
time step continuity errors : sum local = 0.964082, global = 0.228668, cumulative = -9.48661
ExecutionTime = 3.26 s  ClockTime = 3 s

Time = 37

smoothSolver:  Solving for Ux, Initial residual = 0.0103546, Final residual = 5.4227e-06, No Iterations 2
smoothSolver:  Solving for Uy, Initial residual = 0.0102167, Final residual = 5.22666e-06, No Iterations 2
smoothSolver:  Solving for Uz, Initial residual = 0.0140551, Final residual = 7.39399e-06, No Iterations 2
GAMG:  Solving for p, Initial residual = 0.0599937, Final residual = 0.00565305, No Iterations 1
GAMG:  Solving for p, Initial residual = 0.0320278, Final residual = 0.00157454, No Iterations 2
GAMG:  Solving for p, Initial residual = 0.039093, Final residual = 0.00273563, No Iterations 1
GAMG:  Solving for p, Initial residual = 0.0186205, Final residual = 0.000835695, No Iterations 2
GAMG:  Solving for p, Initial residual = 0.0142651, Final residual = 0.00101383, No Iterations 1
time step continuity errors : sum local = 0.777229, global = 0.189407, cumulative = -9.2972
ExecutionTime = 3.34 s  ClockTime = 3 s

Time = 38

smoothSolver:  Solving for Ux, Initial residual = 0.0102345, Final residual = 5.27869e-06, No Iterations 2
smoothSolver:  Solving for Uy, Initial residual = 0.0100622, Final residual = 5.10888e-06, No Iterations 2
smoothSolver:  Solving for Uz, Initial residual = 0.0138419, Final residual = 7.23406e-06, No Iterations 2
GAMG:  Solving for p, Initial residual = 0.0699995, Final residual = 0.00663624, No Iterations 1
GAMG:  Solving for p, Initial residual = 0.0322752, Final residual = 0.00141498, No Iterations 2
GAMG:  Solving for p, Initial residual = 0.0366332, Final residual = 0.00264758, No Iterations 1
GAMG:  Solving for p, Initial residual = 0.0192077, Final residual = 0.000869569, No Iterations 2
GAMG:  Solving for p, Initial residual = 0.0145057, Final residual = 0.00105094, No Iterations 1
time step continuity errors : sum local = 0.671074, global = 0.153219, cumulative = -9.14398
ExecutionTime = 3.42 s  ClockTime = 3 s

Time = 39

smoothSolver:  Solving for Ux, Initial residual = 0.0100764, Final residual = 5.16798e-06, No Iterations 2
smoothSolver:  Solving for Uy, Initial residual = 0.00989987, Final residual = 5.00257e-06, No Iterations 2
smoothSolver:  Solving for Uz, Initial residual = 0.0137409, Final residual = 7.08726e-06, No Iterations 2
GAMG:  Solving for p, Initial residual = 0.0781579, Final residual = 0.00730302, No Iterations 1
GAMG:  Solving for p, Initial residual = 0.0322264, Final residual = 0.00130366, No Iterations 2
GAMG:  Solving for p, Initial residual = 0.0244575, Final residual = 0.00184395, No Iterations 1
GAMG:  Solving for p, Initial residual = 0.0136593, Final residual = 0.000574871, No Iterations 2
GAMG:  Solving for p, Initial residual = 0.0130756, Final residual = 0.000981209, No Iterations 1
time step continuity errors : sum local = 0.562481, global = 0.100355, cumulative = -9.04363
ExecutionTime = 3.52 s  ClockTime = 3 s

Time = 40

smoothSolver:  Solving for Ux, Initial residual = 0.00989791, Final residual = 5.07301e-06, No Iterations 2
smoothSolver:  Solving for Uy, Initial residual = 0.0097299, Final residual = 4.8909e-06, No Iterations 2
smoothSolver:  Solving for Uz, Initial residual = 0.0136029, Final residual = 6.85786e-06, No Iterations 2
GAMG:  Solving for p, Initial residual = 0.0813682, Final residual = 0.00729755, No Iterations 1
GAMG:  Solving for p, Initial residual = 0.0309174, Final residual = 0.00126018, No Iterations 2
GAMG:  Solving for p, Initial residual = 0.0194368, Final residual = 0.00148064, No Iterations 1
GAMG:  Solving for p, Initial residual = 0.0105421, Final residual = 0.000436132, No Iterations 2
GAMG:  Solving for p, Initial residual = 0.00874048, Final residual = 0.000671949, No Iterations 1
time step continuity errors : sum local = 0.51113, global = 0.0194333, cumulative = -9.0242
ExecutionTime = 3.6 s  ClockTime = 3 s

Time = 41

smoothSolver:  Solving for Ux, Initial residual = 0.00973351, Final residual = 4.99444e-06, No Iterations 2
smoothSolver:  Solving for Uy, Initial residual = 0.00956415, Final residual = 4.81619e-06, No Iterations 2
smoothSolver:  Solving for Uz, Initial residual = 0.0134049, Final residual = 6.65988e-06, No Iterations 2
GAMG:  Solving for p, Initial residual = 0.0789752, Final residual = 0.00680982, No Iterations 1
GAMG:  Solving for p, Initial residual = 0.0285238, Final residual = 0.0012107, No Iterations 2
GAMG:  Solving for p, Initial residual = 0.0168928, Final residual = 0.00124297, No Iterations 1
GAMG:  Solving for p, Initial residual = 0.00884793, Final residual = 0.000376371, No Iterations 2
GAMG:  Solving for p, Initial residual = 0.00718494, Final residual = 0.000539551, No Iterations 1
time step continuity errors : sum local = 0.500021, global = -0.0465233, cumulative = -9.07072
ExecutionTime = 3.69 s  ClockTime = 4 s

Time = 42

smoothSolver:  Solving for Ux, Initial residual = 0.00958873, Final residual = 4.92856e-06, No Iterations 2
smoothSolver:  Solving for Uy, Initial residual = 0.0094102, Final residual = 4.73108e-06, No Iterations 2
smoothSolver:  Solving for Uz, Initial residual = 0.0131983, Final residual = 6.48081e-06, No Iterations 2
GAMG:  Solving for p, Initial residual = 0.0732001, Final residual = 0.00615217, No Iterations 1
GAMG:  Solving for p, Initial residual = 0.0259899, Final residual = 0.00258204, No Iterations 1
GAMG:  Solving for p, Initial residual = 0.013659, Final residual = 0.000715756, No Iterations 2
GAMG:  Solving for p, Initial residual = 0.0108241, Final residual = 0.00077697, No Iterations 1
GAMG:  Solving for p, Initial residual = 0.00578895, Final residual = 0.00025485, No Iterations 2
time step continuity errors : sum local = 0.262693, global = -0.0201993, cumulative = -9.09092
ExecutionTime = 3.77 s  ClockTime = 4 s

Time = 43

smoothSolver:  Solving for Ux, Initial residual = 0.00947723, Final residual = 4.84601e-06, No Iterations 2
smoothSolver:  Solving for Uy, Initial residual = 0.00926519, Final residual = 4.65988e-06, No Iterations 2
smoothSolver:  Solving for Uz, Initial residual = 0.0130415, Final residual = 6.36787e-06, No Iterations 2
GAMG:  Solving for p, Initial residual = 0.0669169, Final residual = 0.00550797, No Iterations 1
GAMG:  Solving for p, Initial residual = 0.0239387, Final residual = 0.00237186, No Iterations 1
GAMG:  Solving for p, Initial residual = 0.0126014, Final residual = 0.000652627, No Iterations 2
GAMG:  Solving for p, Initial residual = 0.00994796, Final residual = 0.0007117, No Iterations 1
GAMG:  Solving for p, Initial residual = 0.00530945, Final residual = 0.000238422, No Iterations 2
time step continuity errors : sum local = 0.260806, global = -0.0204956, cumulative = -9.11141
ExecutionTime = 3.85 s  ClockTime = 4 s

Time = 44

smoothSolver:  Solving for Ux, Initial residual = 0.00937306, Final residual = 4.77625e-06, No Iterations 2
smoothSolver:  Solving for Uy, Initial residual = 0.00913879, Final residual = 4.61899e-06, No Iterations 2
smoothSolver:  Solving for Uz, Initial residual = 0.012882, Final residual = 6.28312e-06, No Iterations 2
GAMG:  Solving for p, Initial residual = 0.0611644, Final residual = 0.0049641, No Iterations 1
GAMG:  Solving for p, Initial residual = 0.0221789, Final residual = 0.00218975, No Iterations 1
GAMG:  Solving for p, Initial residual = 0.0115626, Final residual = 0.000572122, No Iterations 2
GAMG:  Solving for p, Initial residual = 0.00894352, Final residual = 0.000649345, No Iterations 1
GAMG:  Solving for p, Initial residual = 0.00483586, Final residual = 0.000221322, No Iterations 2
time step continuity errors : sum local = 0.245249, global = -0.0192471, cumulative = -9.13066
ExecutionTime = 3.95 s  ClockTime = 4 s

Time = 45

smoothSolver:  Solving for Ux, Initial residual = 0.00927281, Final residual = 4.70376e-06, No Iterations 2
smoothSolver:  Solving for Uy, Initial residual = 0.00901503, Final residual = 4.57902e-06, No Iterations 2
smoothSolver:  Solving for Uz, Initial residual = 0.012743, Final residual = 6.19771e-06, No Iterations 2
GAMG:  Solving for p, Initial residual = 0.0572895, Final residual = 0.00456034, No Iterations 1
GAMG:  Solving for p, Initial residual = 0.0210327, Final residual = 0.0020568, No Iterations 1
GAMG:  Solving for p, Initial residual = 0.0108432, Final residual = 0.000487643, No Iterations 2
GAMG:  Solving for p, Initial residual = 0.00806531, Final residual = 0.000600663, No Iterations 1
GAMG:  Solving for p, Initial residual = 0.00450829, Final residual = 0.0002028, No Iterations 2
time step continuity errors : sum local = 0.218091, global = -0.0180176, cumulative = -9.14868
ExecutionTime = 4.03 s  ClockTime = 4 s

Time = 46

smoothSolver:  Solving for Ux, Initial residual = 0.00917391, Final residual = 4.63169e-06, No Iterations 2
smoothSolver:  Solving for Uy, Initial residual = 0.00889627, Final residual = 4.52845e-06, No Iterations 2
smoothSolver:  Solving for Uz, Initial residual = 0.0125996, Final residual = 6.10673e-06, No Iterations 2
GAMG:  Solving for p, Initial residual = 0.0550015, Final residual = 0.00427627, No Iterations 1
GAMG:  Solving for p, Initial residual = 0.0203751, Final residual = 0.00195744, No Iterations 1
GAMG:  Solving for p, Initial residual = 0.0104027, Final residual = 0.000427994, No Iterations 2
GAMG:  Solving for p, Initial residual = 0.00743174, Final residual = 0.000571457, No Iterations 1
GAMG:  Solving for p, Initial residual = 0.00432669, Final residual = 0.000178186, No Iterations 2
time step continuity errors : sum local = 0.182799, global = -0.0160426, cumulative = -9.16472
ExecutionTime = 4.11 s  ClockTime = 4 s

Time = 47

smoothSolver:  Solving for Ux, Initial residual = 0.0090793, Final residual = 4.56639e-06, No Iterations 2
smoothSolver:  Solving for Uy, Initial residual = 0.00879197, Final residual = 4.48591e-06, No Iterations 2
smoothSolver:  Solving for Uz, Initial residual = 0.0124626, Final residual = 6.02524e-06, No Iterations 2
GAMG:  Solving for p, Initial residual = 0.0540987, Final residual = 0.00411284, No Iterations 1
GAMG:  Solving for p, Initial residual = 0.0201474, Final residual = 0.00188941, No Iterations 1
GAMG:  Solving for p, Initial residual = 0.0102538, Final residual = 0.00042156, No Iterations 2
GAMG:  Solving for p, Initial residual = 0.00737715, Final residual = 0.000573565, No Iterations 1
GAMG:  Solving for p, Initial residual = 0.00437962, Final residual = 0.000170994, No Iterations 2
time step continuity errors : sum local = 0.167173, global = -0.0038872, cumulative = -9.16861
ExecutionTime = 4.21 s  ClockTime = 4 s

Time = 48

smoothSolver:  Solving for Ux, Initial residual = 0.0089907, Final residual = 4.52974e-06, No Iterations 2
smoothSolver:  Solving for Uy, Initial residual = 0.0086944, Final residual = 4.44112e-06, No Iterations 2
smoothSolver:  Solving for Uz, Initial residual = 0.0123156, Final residual = 5.9521e-06, No Iterations 2
GAMG:  Solving for p, Initial residual = 0.0537287, Final residual = 0.00401751, No Iterations 1
GAMG:  Solving for p, Initial residual = 0.020056, Final residual = 0.0018389, No Iterations 1
GAMG:  Solving for p, Initial residual = 0.0102762, Final residual = 0.000428876, No Iterations 2
GAMG:  Solving for p, Initial residual = 0.00771744, Final residual = 0.000584896, No Iterations 1
GAMG:  Solving for p, Initial residual = 0.00455111, Final residual = 0.000182137, No Iterations 2
time step continuity errors : sum local = 0.170319, global = 0.0149621, cumulative = -9.15365
ExecutionTime = 4.29 s  ClockTime = 4 s

Time = 49

smoothSolver:  Solving for Ux, Initial residual = 0.00891718, Final residual = 4.46845e-06, No Iterations 2
smoothSolver:  Solving for Uy, Initial residual = 0.00861193, Final residual = 4.40396e-06, No Iterations 2
smoothSolver:  Solving for Uz, Initial residual = 0.0121689, Final residual = 5.8714e-06, No Iterations 2
GAMG:  Solving for p, Initial residual = 0.0539848, Final residual = 0.00400823, No Iterations 1
GAMG:  Solving for p, Initial residual = 0.0201938, Final residual = 0.00183162, No Iterations 1
GAMG:  Solving for p, Initial residual = 0.0104712, Final residual = 0.00045106, No Iterations 2
GAMG:  Solving for p, Initial residual = 0.00827849, Final residual = 0.000618133, No Iterations 1
GAMG:  Solving for p, Initial residual = 0.00482982, Final residual = 0.000201234, No Iterations 2
time step continuity errors : sum local = 0.180646, global = 0.0214307, cumulative = -9.13222
ExecutionTime = 4.38 s  ClockTime = 4 s

Time = 50

smoothSolver:  Solving for Ux, Initial residual = 0.00885605, Final residual = 4.41938e-06, No Iterations 2
smoothSolver:  Solving for Uy, Initial residual = 0.00853114, Final residual = 4.38511e-06, No Iterations 2
smoothSolver:  Solving for Uz, Initial residual = 0.0120243, Final residual = 5.79591e-06, No Iterations 2
GAMG:  Solving for p, Initial residual = 0.0547815, Final residual = 0.00404127, No Iterations 1
GAMG:  Solving for p, Initial residual = 0.0204243, Final residual = 0.00185463, No Iterations 1
GAMG:  Solving for p, Initial residual = 0.0107029, Final residual = 0.000464041, No Iterations 2
GAMG:  Solving for p, Initial residual = 0.00859101, Final residual = 0.000641207, No Iterations 1
GAMG:  Solving for p, Initial residual = 0.00501, Final residual = 0.000213694, No Iterations 2
time step continuity errors : sum local = 0.186766, global = 0.0228014, cumulative = -9.10941
ExecutionTime = 4.46 s  ClockTime = 4 s

Time = 51

smoothSolver:  Solving for Ux, Initial residual = 0.00879816, Final residual = 4.37314e-06, No Iterations 2
smoothSolver:  Solving for Uy, Initial residual = 0.00845642, Final residual = 4.34339e-06, No Iterations 2
smoothSolver:  Solving for Uz, Initial residual = 0.0118914, Final residual = 5.72431e-06, No Iterations 2
GAMG:  Solving for p, Initial residual = 0.0559205, Final residual = 0.00408555, No Iterations 1
GAMG:  Solving for p, Initial residual = 0.0206736, Final residual = 0.00186593, No Iterations 1
GAMG:  Solving for p, Initial residual = 0.0108492, Final residual = 0.000455061, No Iterations 2
GAMG:  Solving for p, Initial residual = 0.00849481, Final residual = 0.000636735, No Iterations 1
GAMG:  Solving for p, Initial residual = 0.00498878, Final residual = 0.000211644, No Iterations 2
time step continuity errors : sum local = 0.183267, global = 0.0222846, cumulative = -9.08713
ExecutionTime = 4.54 s  ClockTime = 4 s

Time = 52

smoothSolver:  Solving for Ux, Initial residual = 0.00873658, Final residual = 4.31149e-06, No Iterations 2
smoothSolver:  Solving for Uy, Initial residual = 0.00837828, Final residual = 4.29345e-06, No Iterations 2
smoothSolver:  Solving for Uz, Initial residual = 0.0117636, Final residual = 5.67084e-06, No Iterations 2
GAMG:  Solving for p, Initial residual = 0.0569732, Final residual = 0.00411251, No Iterations 1
GAMG:  Solving for p, Initial residual = 0.0208611, Final residual = 0.00186277, No Iterations 1
GAMG:  Solving for p, Initial residual = 0.0108175, Final residual = 0.000432689, No Iterations 2
GAMG:  Solving for p, Initial residual = 0.00808695, Final residual = 0.00061131, No Iterations 1
GAMG:  Solving for p, Initial residual = 0.00479104, Final residual = 0.000198772, No Iterations 2
time step continuity errors : sum local = 0.172788, global = 0.0217013, cumulative = -9.06543
ExecutionTime = 4.63 s  ClockTime = 4 s

Time = 53

smoothSolver:  Solving for Ux, Initial residual = 0.00865877, Final residual = 4.26101e-06, No Iterations 2
smoothSolver:  Solving for Uy, Initial residual = 0.00830485, Final residual = 4.23737e-06, No Iterations 2
smoothSolver:  Solving for Uz, Initial residual = 0.0116556, Final residual = 5.62054e-06, No Iterations 2
GAMG:  Solving for p, Initial residual = 0.0574334, Final residual = 0.00409813, No Iterations 1
GAMG:  Solving for p, Initial residual = 0.0207812, Final residual = 0.00182372, No Iterations 1
GAMG:  Solving for p, Initial residual = 0.0105826, Final residual = 0.000402878, No Iterations 2
GAMG:  Solving for p, Initial residual = 0.0075223, Final residual = 0.000569906, No Iterations 1
GAMG:  Solving for p, Initial residual = 0.00449966, Final residual = 0.000178849, No Iterations 2
time step continuity errors : sum local = 0.158206, global = 0.0194134, cumulative = -9.04601
ExecutionTime = 4.71 s  ClockTime = 5 s

Time = 54

smoothSolver:  Solving for Ux, Initial residual = 0.00857768, Final residual = 4.21354e-06, No Iterations 2
smoothSolver:  Solving for Uy, Initial residual = 0.00823364, Final residual = 4.1891e-06, No Iterations 2
smoothSolver:  Solving for Uz, Initial residual = 0.0115509, Final residual = 5.56779e-06, No Iterations 2
GAMG:  Solving for p, Initial residual = 0.0576988, Final residual = 0.00406644, No Iterations 1
GAMG:  Solving for p, Initial residual = 0.0207151, Final residual = 0.00178438, No Iterations 1
GAMG:  Solving for p, Initial residual = 0.0103719, Final residual = 0.00103431, No Iterations 1
GAMG:  Solving for p, Initial residual = 0.00640129, Final residual = 0.000266309, No Iterations 2
GAMG:  Solving for p, Initial residual = 0.00498746, Final residual = 0.000387795, No Iterations 1
time step continuity errors : sum local = 0.348675, global = 0.0404031, cumulative = -9.00561
ExecutionTime = 4.79 s  ClockTime = 5 s

Time = 55

smoothSolver:  Solving for Ux, Initial residual = 0.00850265, Final residual = 4.19263e-06, No Iterations 2
smoothSolver:  Solving for Uy, Initial residual = 0.00815939, Final residual = 4.14246e-06, No Iterations 2
smoothSolver:  Solving for Uz, Initial residual = 0.0114416, Final residual = 5.51449e-06, No Iterations 2
GAMG:  Solving for p, Initial residual = 0.0575239, Final residual = 0.00400205, No Iterations 1
GAMG:  Solving for p, Initial residual = 0.0205445, Final residual = 0.00171703, No Iterations 1
GAMG:  Solving for p, Initial residual = 0.0101737, Final residual = 0.000982212, No Iterations 1
GAMG:  Solving for p, Initial residual = 0.00619403, Final residual = 0.000244551, No Iterations 2
GAMG:  Solving for p, Initial residual = 0.0046682, Final residual = 0.000361629, No Iterations 1
time step continuity errors : sum local = 0.33147, global = 0.0142541, cumulative = -8.99136
ExecutionTime = 4.88 s  ClockTime = 5 s

Time = 56

smoothSolver:  Solving for Ux, Initial residual = 0.00842735, Final residual = 4.14915e-06, No Iterations 2
smoothSolver:  Solving for Uy, Initial residual = 0.00808527, Final residual = 4.08432e-06, No Iterations 2
smoothSolver:  Solving for Uz, Initial residual = 0.011307, Final residual = 5.42159e-06, No Iterations 2
GAMG:  Solving for p, Initial residual = 0.0570344, Final residual = 0.00392184, No Iterations 1
GAMG:  Solving for p, Initial residual = 0.0202796, Final residual = 0.00166167, No Iterations 1
GAMG:  Solving for p, Initial residual = 0.00995873, Final residual = 0.000940346, No Iterations 1
GAMG:  Solving for p, Initial residual = 0.00600571, Final residual = 0.000231394, No Iterations 2
GAMG:  Solving for p, Initial residual = 0.00446795, Final residual = 0.000344284, No Iterations 1
time step continuity errors : sum local = 0.321048, global = -0.00779947, cumulative = -8.99916
ExecutionTime = 4.96 s  ClockTime = 5 s

Time = 57

smoothSolver:  Solving for Ux, Initial residual = 0.0083659, Final residual = 4.12716e-06, No Iterations 2
smoothSolver:  Solving for Uy, Initial residual = 0.00801862, Final residual = 4.0593e-06, No Iterations 2
smoothSolver:  Solving for Uz, Initial residual = 0.0111681, Final residual = 5.35877e-06, No Iterations 2
GAMG:  Solving for p, Initial residual = 0.056732, Final residual = 0.00386734, No Iterations 1
GAMG:  Solving for p, Initial residual = 0.0200738, Final residual = 0.00162648, No Iterations 1
GAMG:  Solving for p, Initial residual = 0.00979045, Final residual = 0.000917945, No Iterations 1
GAMG:  Solving for p, Initial residual = 0.00589346, Final residual = 0.000227489, No Iterations 2
GAMG:  Solving for p, Initial residual = 0.00439175, Final residual = 0.000337009, No Iterations 1
time step continuity errors : sum local = 0.318069, global = -0.0231615, cumulative = -9.02232
ExecutionTime = 5.05 s  ClockTime = 5 s

Time = 58

smoothSolver:  Solving for Ux, Initial residual = 0.00829041, Final residual = 4.07837e-06, No Iterations 2
smoothSolver:  Solving for Uy, Initial residual = 0.00796727, Final residual = 4.04127e-06, No Iterations 2
smoothSolver:  Solving for Uz, Initial residual = 0.0110218, Final residual = 5.29024e-06, No Iterations 2
GAMG:  Solving for p, Initial residual = 0.0562868, Final residual = 0.00381391, No Iterations 1
GAMG:  Solving for p, Initial residual = 0.0199437, Final residual = 0.001614, No Iterations 1
GAMG:  Solving for p, Initial residual = 0.00970837, Final residual = 0.000915268, No Iterations 1
GAMG:  Solving for p, Initial residual = 0.00586015, Final residual = 0.000230796, No Iterations 2
GAMG:  Solving for p, Initial residual = 0.00438324, Final residual = 0.00033822, No Iterations 1
time step continuity errors : sum local = 0.322796, global = -0.0323718, cumulative = -9.05469
ExecutionTime = 5.12 s  ClockTime = 5 s

Time = 59

smoothSolver:  Solving for Ux, Initial residual = 0.00821893, Final residual = 4.04196e-06, No Iterations 2
smoothSolver:  Solving for Uy, Initial residual = 0.0079229, Final residual = 4.01666e-06, No Iterations 2
smoothSolver:  Solving for Uz, Initial residual = 0.0108996, Final residual = 5.24772e-06, No Iterations 2
GAMG:  Solving for p, Initial residual = 0.0558583, Final residual = 0.0037908, No Iterations 1
GAMG:  Solving for p, Initial residual = 0.0199117, Final residual = 0.00161462, No Iterations 1
GAMG:  Solving for p, Initial residual = 0.00965049, Final residual = 0.000916412, No Iterations 1
GAMG:  Solving for p, Initial residual = 0.00584637, Final residual = 0.000232446, No Iterations 2
GAMG:  Solving for p, Initial residual = 0.0043721, Final residual = 0.000342261, No Iterations 1
time step continuity errors : sum local = 0.329397, global = -0.0360657, cumulative = -9.09076
ExecutionTime = 5.21 s  ClockTime = 5 s

Time = 60

smoothSolver:  Solving for Ux, Initial residual = 0.00814952, Final residual = 3.97985e-06, No Iterations 2
smoothSolver:  Solving for Uy, Initial residual = 0.00787788, Final residual = 3.97993e-06, No Iterations 2
smoothSolver:  Solving for Uz, Initial residual = 0.0107877, Final residual = 5.18389e-06, No Iterations 2
GAMG:  Solving for p, Initial residual = 0.0555586, Final residual = 0.00376798, No Iterations 1
GAMG:  Solving for p, Initial residual = 0.0200185, Final residual = 0.00162008, No Iterations 1
GAMG:  Solving for p, Initial residual = 0.00973317, Final residual = 0.000921563, No Iterations 1
GAMG:  Solving for p, Initial residual = 0.00592885, Final residual = 0.000233948, No Iterations 2
GAMG:  Solving for p, Initial residual = 0.00438727, Final residual = 0.00034967, No Iterations 1
time step continuity errors : sum local = 0.337864, global = -0.0344949, cumulative = -9.12525
ExecutionTime = 5.29 s  ClockTime = 5 s

Time = 61

smoothSolver:  Solving for Ux, Initial residual = 0.00808796, Final residual = 3.95374e-06, No Iterations 2
smoothSolver:  Solving for Uy, Initial residual = 0.00784708, Final residual = 3.95083e-06, No Iterations 2
smoothSolver:  Solving for Uz, Initial residual = 0.0106875, Final residual = 5.15579e-06, No Iterations 2
GAMG:  Solving for p, Initial residual = 0.0554595, Final residual = 0.00376551, No Iterations 1
GAMG:  Solving for p, Initial residual = 0.0202007, Final residual = 0.00162775, No Iterations 1
GAMG:  Solving for p, Initial residual = 0.00986876, Final residual = 0.000926702, No Iterations 1
GAMG:  Solving for p, Initial residual = 0.00604189, Final residual = 0.000237923, No Iterations 2
GAMG:  Solving for p, Initial residual = 0.00445859, Final residual = 0.000360097, No Iterations 1
time step continuity errors : sum local = 0.34878, global = -0.028275, cumulative = -9.15353
ExecutionTime = 5.37 s  ClockTime = 5 s

Time = 62

smoothSolver:  Solving for Ux, Initial residual = 0.00801814, Final residual = 3.93039e-06, No Iterations 2
smoothSolver:  Solving for Uy, Initial residual = 0.00782268, Final residual = 3.91473e-06, No Iterations 2
smoothSolver:  Solving for Uz, Initial residual = 0.0105973, Final residual = 5.12203e-06, No Iterations 2
GAMG:  Solving for p, Initial residual = 0.055452, Final residual = 0.00378713, No Iterations 1
GAMG:  Solving for p, Initial residual = 0.0203333, Final residual = 0.00164164, No Iterations 1
GAMG:  Solving for p, Initial residual = 0.0100396, Final residual = 0.000936752, No Iterations 1
GAMG:  Solving for p, Initial residual = 0.00619338, Final residual = 0.000243079, No Iterations 2
GAMG:  Solving for p, Initial residual = 0.00461076, Final residual = 0.000373064, No Iterations 1
time step continuity errors : sum local = 0.362064, global = -0.0194288, cumulative = -9.17295
ExecutionTime = 5.45 s  ClockTime = 5 s

Time = 63

smoothSolver:  Solving for Ux, Initial residual = 0.00796599, Final residual = 3.94821e-06, No Iterations 2
smoothSolver:  Solving for Uy, Initial residual = 0.00781361, Final residual = 3.90583e-06, No Iterations 2
smoothSolver:  Solving for Uz, Initial residual = 0.0105279, Final residual = 5.13363e-06, No Iterations 2
GAMG:  Solving for p, Initial residual = 0.0559036, Final residual = 0.0038399, No Iterations 1
GAMG:  Solving for p, Initial residual = 0.0204399, Final residual = 0.00167465, No Iterations 1
GAMG:  Solving for p, Initial residual = 0.0102186, Final residual = 0.000960351, No Iterations 1
GAMG:  Solving for p, Initial residual = 0.00636337, Final residual = 0.000250328, No Iterations 2
GAMG:  Solving for p, Initial residual = 0.00482412, Final residual = 0.000390774, No Iterations 1
time step continuity errors : sum local = 0.380841, global = -0.0103247, cumulative = -9.18328
ExecutionTime = 5.54 s  ClockTime = 5 s

Time = 64

smoothSolver:  Solving for Ux, Initial residual = 0.00794593, Final residual = 3.99117e-06, No Iterations 2
smoothSolver:  Solving for Uy, Initial residual = 0.00781107, Final residual = 3.92796e-06, No Iterations 2
smoothSolver:  Solving for Uz, Initial residual = 0.0104761, Final residual = 5.10248e-06, No Iterations 2
GAMG:  Solving for p, Initial residual = 0.0565734, Final residual = 0.00391882, No Iterations 1
GAMG:  Solving for p, Initial residual = 0.0206803, Final residual = 0.00172303, No Iterations 1
GAMG:  Solving for p, Initial residual = 0.0104096, Final residual = 0.000994717, No Iterations 1
GAMG:  Solving for p, Initial residual = 0.00655105, Final residual = 0.000265831, No Iterations 2
GAMG:  Solving for p, Initial residual = 0.00506287, Final residual = 0.000414631, No Iterations 1
time step continuity errors : sum local = 0.405333, global = -0.00356145, cumulative = -9.18684
ExecutionTime = 5.62 s  ClockTime = 5 s

Time = 65

smoothSolver:  Solving for Ux, Initial residual = 0.00794897, Final residual = 4.0415e-06, No Iterations 2
smoothSolver:  Solving for Uy, Initial residual = 0.00784307, Final residual = 3.95904e-06, No Iterations 2
smoothSolver:  Solving for Uz, Initial residual = 0.0104552, Final residual = 5.1125e-06, No Iterations 2
GAMG:  Solving for p, Initial residual = 0.0576143, Final residual = 0.00404897, No Iterations 1
GAMG:  Solving for p, Initial residual = 0.0211718, Final residual = 0.00179299, No Iterations 1
GAMG:  Solving for p, Initial residual = 0.0107228, Final residual = 0.00103118, No Iterations 1
GAMG:  Solving for p, Initial residual = 0.00675575, Final residual = 0.000279098, No Iterations 2
GAMG:  Solving for p, Initial residual = 0.00522322, Final residual = 0.000423357, No Iterations 1
time step continuity errors : sum local = 0.415535, global = -0.000940511, cumulative = -9.18778
ExecutionTime = 5.71 s  ClockTime = 6 s

Time = 66

smoothSolver:  Solving for Ux, Initial residual = 0.00794591, Final residual = 4.09587e-06, No Iterations 2
smoothSolver:  Solving for Uy, Initial residual = 0.00787495, Final residual = 4.0202e-06, No Iterations 2
smoothSolver:  Solving for Uz, Initial residual = 0.0104207, Final residual = 5.09887e-06, No Iterations 2
GAMG:  Solving for p, Initial residual = 0.0579643, Final residual = 0.00422798, No Iterations 1
GAMG:  Solving for p, Initial residual = 0.021625, Final residual = 0.00193291, No Iterations 1
GAMG:  Solving for p, Initial residual = 0.0111023, Final residual = 0.00109636, No Iterations 1
GAMG:  Solving for p, Initial residual = 0.00702819, Final residual = 0.000293124, No Iterations 2
GAMG:  Solving for p, Initial residual = 0.00531032, Final residual = 0.000409233, No Iterations 1
time step continuity errors : sum local = 0.404546, global = -0.00601104, cumulative = -9.19379
ExecutionTime = 5.79 s  ClockTime = 6 s

Time = 67

smoothSolver:  Solving for Ux, Initial residual = 0.00797584, Final residual = 4.0938e-06, No Iterations 2
smoothSolver:  Solving for Uy, Initial residual = 0.00785829, Final residual = 4.06451e-06, No Iterations 2
smoothSolver:  Solving for Uz, Initial residual = 0.0103866, Final residual = 5.04021e-06, No Iterations 2
GAMG:  Solving for p, Initial residual = 0.0585521, Final residual = 0.00427191, No Iterations 1
GAMG:  Solving for p, Initial residual = 0.0221284, Final residual = 0.00196322, No Iterations 1
GAMG:  Solving for p, Initial residual = 0.0114364, Final residual = 0.00111184, No Iterations 1
GAMG:  Solving for p, Initial residual = 0.00717494, Final residual = 0.000296391, No Iterations 2
GAMG:  Solving for p, Initial residual = 0.00547777, Final residual = 0.000418966, No Iterations 1
time step continuity errors : sum local = 0.418097, global = -0.0103947, cumulative = -9.20419
ExecutionTime = 5.86 s  ClockTime = 6 s

Time = 68

smoothSolver:  Solving for Ux, Initial residual = 0.00801156, Final residual = 4.12617e-06, No Iterations 2
smoothSolver:  Solving for Uy, Initial residual = 0.00788174, Final residual = 4.10865e-06, No Iterations 2
smoothSolver:  Solving for Uz, Initial residual = 0.0103366, Final residual = 5.06932e-06, No Iterations 2
GAMG:  Solving for p, Initial residual = 0.0587528, Final residual = 0.0042828, No Iterations 1
GAMG:  Solving for p, Initial residual = 0.022583, Final residual = 0.00196277, No Iterations 1
GAMG:  Solving for p, Initial residual = 0.0116408, Final residual = 0.00112439, No Iterations 1
GAMG:  Solving for p, Initial residual = 0.00723194, Final residual = 0.000305852, No Iterations 2
GAMG:  Solving for p, Initial residual = 0.00550775, Final residual = 0.000431247, No Iterations 1
time step continuity errors : sum local = 0.433508, global = -0.00545788, cumulative = -9.20964
ExecutionTime = 5.95 s  ClockTime = 6 s

Time = 69

smoothSolver:  Solving for Ux, Initial residual = 0.00801234, Final residual = 4.14848e-06, No Iterations 2
smoothSolver:  Solving for Uy, Initial residual = 0.00794303, Final residual = 4.24063e-06, No Iterations 2
smoothSolver:  Solving for Uz, Initial residual = 0.0103461, Final residual = 5.38035e-06, No Iterations 2
GAMG:  Solving for p, Initial residual = 0.0584037, Final residual = 0.00419162, No Iterations 1
GAMG:  Solving for p, Initial residual = 0.0226716, Final residual = 0.00191761, No Iterations 1
GAMG:  Solving for p, Initial residual = 0.0117387, Final residual = 0.00110251, No Iterations 1
GAMG:  Solving for p, Initial residual = 0.00727623, Final residual = 0.000300942, No Iterations 2
GAMG:  Solving for p, Initial residual = 0.00550553, Final residual = 0.000435477, No Iterations 1
time step continuity errors : sum local = 0.441216, global = -0.00801778, cumulative = -9.21766
ExecutionTime = 6.03 s  ClockTime = 6 s

Time = 70

smoothSolver:  Solving for Ux, Initial residual = 0.00802108, Final residual = 4.16347e-06, No Iterations 2
smoothSolver:  Solving for Uy, Initial residual = 0.00797948, Final residual = 4.37943e-06, No Iterations 2
smoothSolver:  Solving for Uz, Initial residual = 0.0103258, Final residual = 5.52994e-06, No Iterations 2
GAMG:  Solving for p, Initial residual = 0.0582258, Final residual = 0.00406412, No Iterations 1
GAMG:  Solving for p, Initial residual = 0.0223827, Final residual = 0.00181157, No Iterations 1
GAMG:  Solving for p, Initial residual = 0.0114354, Final residual = 0.00103697, No Iterations 1
GAMG:  Solving for p, Initial residual = 0.00699232, Final residual = 0.000272715, No Iterations 2
GAMG:  Solving for p, Initial residual = 0.00517473, Final residual = 0.000416972, No Iterations 1
time step continuity errors : sum local = 0.424061, global = 0.00310518, cumulative = -9.21456
ExecutionTime = 6.12 s  ClockTime = 6 s

Time = 71

smoothSolver:  Solving for Ux, Initial residual = 0.00798985, Final residual = 4.15221e-06, No Iterations 2
smoothSolver:  Solving for Uy, Initial residual = 0.00793182, Final residual = 4.22128e-06, No Iterations 2
smoothSolver:  Solving for Uz, Initial residual = 0.0101778, Final residual = 5.34124e-06, No Iterations 2
GAMG:  Solving for p, Initial residual = 0.0579733, Final residual = 0.00400346, No Iterations 1
GAMG:  Solving for p, Initial residual = 0.0219519, Final residual = 0.00178838, No Iterations 1
GAMG:  Solving for p, Initial residual = 0.0110806, Final residual = 0.00100636, No Iterations 1
GAMG:  Solving for p, Initial residual = 0.00682554, Final residual = 0.000257562, No Iterations 2
GAMG:  Solving for p, Initial residual = 0.00497977, Final residual = 0.000393016, No Iterations 1
time step continuity errors : sum local = 0.398754, global = 0.0191659, cumulative = -9.19539
ExecutionTime = 6.2 s  ClockTime = 6 s

Time = 72

smoothSolver:  Solving for Ux, Initial residual = 0.00794808, Final residual = 4.15352e-06, No Iterations 2
smoothSolver:  Solving for Uy, Initial residual = 0.00783182, Final residual = 4.12743e-06, No Iterations 2
smoothSolver:  Solving for Uz, Initial residual = 0.0100475, Final residual = 5.17467e-06, No Iterations 2
GAMG:  Solving for p, Initial residual = 0.0571707, Final residual = 0.00402754, No Iterations 1
GAMG:  Solving for p, Initial residual = 0.0221229, Final residual = 0.00182478, No Iterations 1
GAMG:  Solving for p, Initial residual = 0.0112265, Final residual = 0.00105122, No Iterations 1
GAMG:  Solving for p, Initial residual = 0.00687594, Final residual = 0.000283769, No Iterations 2
GAMG:  Solving for p, Initial residual = 0.00532941, Final residual = 0.000417925, No Iterations 1
time step continuity errors : sum local = 0.422873, global = 0.0390025, cumulative = -9.15639
ExecutionTime = 6.28 s  ClockTime = 6 s

Time = 73

smoothSolver:  Solving for Ux, Initial residual = 0.00788252, Final residual = 4.01045e-06, No Iterations 2
smoothSolver:  Solving for Uy, Initial residual = 0.00776582, Final residual = 4.01648e-06, No Iterations 2
smoothSolver:  Solving for Uz, Initial residual = 0.00987742, Final residual = 4.88672e-06, No Iterations 2
GAMG:  Solving for p, Initial residual = 0.0575612, Final residual = 0.00416226, No Iterations 1
GAMG:  Solving for p, Initial residual = 0.0225874, Final residual = 0.00189092, No Iterations 1
GAMG:  Solving for p, Initial residual = 0.0115799, Final residual = 0.00111968, No Iterations 1
GAMG:  Solving for p, Initial residual = 0.00720304, Final residual = 0.000306546, No Iterations 2
GAMG:  Solving for p, Initial residual = 0.0057298, Final residual = 0.00044502, No Iterations 1
time step continuity errors : sum local = 0.449423, global = 0.0501076, cumulative = -9.10628
ExecutionTime = 6.36 s  ClockTime = 6 s

Time = 74

smoothSolver:  Solving for Ux, Initial residual = 0.0078431, Final residual = 4.02321e-06, No Iterations 2
smoothSolver:  Solving for Uy, Initial residual = 0.00771377, Final residual = 4.07368e-06, No Iterations 2
smoothSolver:  Solving for Uz, Initial residual = 0.00968925, Final residual = 4.77523e-06, No Iterations 2
GAMG:  Solving for p, Initial residual = 0.0581009, Final residual = 0.00427584, No Iterations 1
GAMG:  Solving for p, Initial residual = 0.0230768, Final residual = 0.0019423, No Iterations 1
GAMG:  Solving for p, Initial residual = 0.0119597, Final residual = 0.00117399, No Iterations 1
GAMG:  Solving for p, Initial residual = 0.00752165, Final residual = 0.00031493, No Iterations 2
GAMG:  Solving for p, Initial residual = 0.00595637, Final residual = 0.000464525, No Iterations 1
time step continuity errors : sum local = 0.468943, global = 0.0544914, cumulative = -9.05179
ExecutionTime = 6.44 s  ClockTime = 6 s

Time = 75

smoothSolver:  Solving for Ux, Initial residual = 0.00779321, Final residual = 4.05562e-06, No Iterations 2
smoothSolver:  Solving for Uy, Initial residual = 0.00767266, Final residual = 4.12274e-06, No Iterations 2
smoothSolver:  Solving for Uz, Initial residual = 0.009526, Final residual = 4.85428e-06, No Iterations 2
GAMG:  Solving for p, Initial residual = 0.0583647, Final residual = 0.00429709, No Iterations 1
GAMG:  Solving for p, Initial residual = 0.0230511, Final residual = 0.00195719, No Iterations 1
GAMG:  Solving for p, Initial residual = 0.0120865, Final residual = 0.00116816, No Iterations 1
GAMG:  Solving for p, Initial residual = 0.00762367, Final residual = 0.000303496, No Iterations 2
GAMG:  Solving for p, Initial residual = 0.00597754, Final residual = 0.000462612, No Iterations 1
time step continuity errors : sum local = 0.467661, global = 0.0564039, cumulative = -8.99539
ExecutionTime = 6.53 s  ClockTime = 6 s

Time = 76

smoothSolver:  Solving for Ux, Initial residual = 0.00775201, Final residual = 4.12097e-06, No Iterations 2
smoothSolver:  Solving for Uy, Initial residual = 0.00768941, Final residual = 4.08961e-06, No Iterations 2
smoothSolver:  Solving for Uz, Initial residual = 0.00938152, Final residual = 4.66522e-06, No Iterations 2
GAMG:  Solving for p, Initial residual = 0.0586423, Final residual = 0.0042881, No Iterations 1
GAMG:  Solving for p, Initial residual = 0.0228836, Final residual = 0.00197166, No Iterations 1
GAMG:  Solving for p, Initial residual = 0.0121762, Final residual = 0.00116929, No Iterations 1
GAMG:  Solving for p, Initial residual = 0.00776576, Final residual = 0.000297331, No Iterations 2
GAMG:  Solving for p, Initial residual = 0.00610449, Final residual = 0.000460134, No Iterations 1
time step continuity errors : sum local = 0.464068, global = 0.0598021, cumulative = -8.93558
ExecutionTime = 6.61 s  ClockTime = 6 s

Time = 77

smoothSolver:  Solving for Ux, Initial residual = 0.00771394, Final residual = 4.06733e-06, No Iterations 2
smoothSolver:  Solving for Uy, Initial residual = 0.00768723, Final residual = 4.08691e-06, No Iterations 2
smoothSolver:  Solving for Uz, Initial residual = 0.00922597, Final residual = 4.6355e-06, No Iterations 2
GAMG:  Solving for p, Initial residual = 0.0591711, Final residual = 0.00420869, No Iterations 1
GAMG:  Solving for p, Initial residual = 0.0228971, Final residual = 0.00198141, No Iterations 1
GAMG:  Solving for p, Initial residual = 0.0122511, Final residual = 0.00114685, No Iterations 1
GAMG:  Solving for p, Initial residual = 0.00779892, Final residual = 0.000303252, No Iterations 2
GAMG:  Solving for p, Initial residual = 0.00609389, Final residual = 0.000469078, No Iterations 1
time step continuity errors : sum local = 0.473357, global = 0.0581085, cumulative = -8.87748
ExecutionTime = 6.69 s  ClockTime = 7 s

Time = 78

smoothSolver:  Solving for Ux, Initial residual = 0.00773183, Final residual = 4.07083e-06, No Iterations 2
smoothSolver:  Solving for Uy, Initial residual = 0.00765287, Final residual = 4.09329e-06, No Iterations 2
smoothSolver:  Solving for Uz, Initial residual = 0.00908821, Final residual = 4.60786e-06, No Iterations 2
GAMG:  Solving for p, Initial residual = 0.0598001, Final residual = 0.00419675, No Iterations 1
GAMG:  Solving for p, Initial residual = 0.0232846, Final residual = 0.00199077, No Iterations 1
GAMG:  Solving for p, Initial residual = 0.0123039, Final residual = 0.00117849, No Iterations 1
GAMG:  Solving for p, Initial residual = 0.00784094, Final residual = 0.000313722, No Iterations 2
GAMG:  Solving for p, Initial residual = 0.00611872, Final residual = 0.000473421, No Iterations 1
time step continuity errors : sum local = 0.470585, global = 0.0580455, cumulative = -8.81943
ExecutionTime = 6.77 s  ClockTime = 7 s

Time = 79

smoothSolver:  Solving for Ux, Initial residual = 0.00772468, Final residual = 4.04717e-06, No Iterations 2
smoothSolver:  Solving for Uy, Initial residual = 0.00761817, Final residual = 4.08838e-06, No Iterations 2
smoothSolver:  Solving for Uz, Initial residual = 0.00892736, Final residual = 4.60013e-06, No Iterations 2
GAMG:  Solving for p, Initial residual = 0.0601559, Final residual = 0.00421689, No Iterations 1
GAMG:  Solving for p, Initial residual = 0.023549, Final residual = 0.00202087, No Iterations 1
GAMG:  Solving for p, Initial residual = 0.0122668, Final residual = 0.00120137, No Iterations 1
GAMG:  Solving for p, Initial residual = 0.00775453, Final residual = 0.000316323, No Iterations 2
GAMG:  Solving for p, Initial residual = 0.00610085, Final residual = 0.000478676, No Iterations 1
time step continuity errors : sum local = 0.474513, global = 0.0560503, cumulative = -8.76338
ExecutionTime = 6.86 s  ClockTime = 7 s

Time = 80

smoothSolver:  Solving for Ux, Initial residual = 0.00769776, Final residual = 4.0039e-06, No Iterations 2
smoothSolver:  Solving for Uy, Initial residual = 0.00758059, Final residual = 4.04207e-06, No Iterations 2
smoothSolver:  Solving for Uz, Initial residual = 0.0088019, Final residual = 4.59731e-06, No Iterations 2
GAMG:  Solving for p, Initial residual = 0.0609265, Final residual = 0.0042341, No Iterations 1
GAMG:  Solving for p, Initial residual = 0.0240858, Final residual = 0.00205347, No Iterations 1
GAMG:  Solving for p, Initial residual = 0.0126911, Final residual = 0.00121659, No Iterations 1
GAMG:  Solving for p, Initial residual = 0.00796922, Final residual = 0.000318414, No Iterations 2
GAMG:  Solving for p, Initial residual = 0.00633288, Final residual = 0.000482961, No Iterations 1
time step continuity errors : sum local = 0.473687, global = 0.0568251, cumulative = -8.70655
ExecutionTime = 6.94 s  ClockTime = 7 s

Time = 81

smoothSolver:  Solving for Ux, Initial residual = 0.00768813, Final residual = 4.03077e-06, No Iterations 2
smoothSolver:  Solving for Uy, Initial residual = 0.00755789, Final residual = 4.03942e-06, No Iterations 2
smoothSolver:  Solving for Uz, Initial residual = 0.00873456, Final residual = 4.52378e-06, No Iterations 2
GAMG:  Solving for p, Initial residual = 0.0623302, Final residual = 0.00432455, No Iterations 1
GAMG:  Solving for p, Initial residual = 0.0250428, Final residual = 0.00208679, No Iterations 1
GAMG:  Solving for p, Initial residual = 0.0129277, Final residual = 0.00123545, No Iterations 1
GAMG:  Solving for p, Initial residual = 0.00820037, Final residual = 0.000319592, No Iterations 2
GAMG:  Solving for p, Initial residual = 0.00637973, Final residual = 0.000496821, No Iterations 1
time step continuity errors : sum local = 0.490016, global = 0.048981, cumulative = -8.65757
ExecutionTime = 7.03 s  ClockTime = 7 s

Time = 82

smoothSolver:  Solving for Ux, Initial residual = 0.00762676, Final residual = 4.02253e-06, No Iterations 2
smoothSolver:  Solving for Uy, Initial residual = 0.00758655, Final residual = 4.0759e-06, No Iterations 2
smoothSolver:  Solving for Uz, Initial residual = 0.00864027, Final residual = 4.41496e-06, No Iterations 2
GAMG:  Solving for p, Initial residual = 0.0624445, Final residual = 0.00429271, No Iterations 1
GAMG:  Solving for p, Initial residual = 0.0242617, Final residual = 0.00202414, No Iterations 1
GAMG:  Solving for p, Initial residual = 0.0123576, Final residual = 0.00116116, No Iterations 1
GAMG:  Solving for p, Initial residual = 0.00771594, Final residual = 0.000279318, No Iterations 2
GAMG:  Solving for p, Initial residual = 0.00594893, Final residual = 0.000453407, No Iterations 1
time step continuity errors : sum local = 0.444625, global = 0.0377396, cumulative = -8.61983
ExecutionTime = 7.1 s  ClockTime = 7 s

Time = 83

[...]
GAMG:  Solving for p, Initial residual = 1.96258e-05, Final residual = 1.7526e-06, No Iterations 1
GAMG:  Solving for p, Initial residual = 1.32508e-05, Final residual = 5.08242e-07, No Iterations 2
time step continuity errors : sum local = 1.28598e+88, global = 2.23358e+86, cumulative = 2.03008e+86
ExecutionTime = 180.24 s  ClockTime = 180 s

Time = 1981

smoothSolver:  Solving for Ux, Initial residual = 0.0539782, Final residual = 2.23151e-05, No Iterations 2
smoothSolver:  Solving for Uy, Initial residual = 0.053201, Final residual = 2.16336e-05, No Iterations 2
smoothSolver:  Solving for Uz, Initial residual = 0.0495664, Final residual = 2.26469e-05, No Iterations 2
GAMG:  Solving for p, Initial residual = 7.14308e-05, Final residual = 3.3993e-06, No Iterations 2
GAMG:  Solving for p, Initial residual = 3.20516e-05, Final residual = 3.03694e-06, No Iterations 1
GAMG:  Solving for p, Initial residual = 2.11398e-05, Final residual = 7.73512e-07, No Iterations 2
GAMG:  Solving for p, Initial residual = 1.48548e-05, Final residual = 1.28878e-06, No Iterations 1
GAMG:  Solving for p, Initial residual = 9.49693e-06, Final residual = 3.76262e-07, No Iterations 2
time step continuity errors : sum local = 1.47701e+88, global = -1.47398e+86, cumulative = 5.561e+85
ExecutionTime = 180.34 s  ClockTime = 180 s

Time = 1982

smoothSolver:  Solving for Ux, Initial residual = 0.052547, Final residual = 2.25111e-05, No Iterations 2
smoothSolver:  Solving for Uy, Initial residual = 0.0532321, Final residual = 2.15556e-05, No Iterations 2
smoothSolver:  Solving for Uz, Initial residual = 0.0490914, Final residual = 2.30336e-05, No Iterations 2
GAMG:  Solving for p, Initial residual = 9.08338e-05, Final residual = 4.33372e-06, No Iterations 2
GAMG:  Solving for p, Initial residual = 4.11615e-05, Final residual = 3.98955e-06, No Iterations 1
GAMG:  Solving for p, Initial residual = 2.67129e-05, Final residual = 1.02799e-06, No Iterations 2
GAMG:  Solving for p, Initial residual = 1.8531e-05, Final residual = 1.64675e-06, No Iterations 1
GAMG:  Solving for p, Initial residual = 1.23868e-05, Final residual = 4.85667e-07, No Iterations 2
time step continuity errors : sum local = 1.64608e+88, global = 9.29261e+85, cumulative = 1.48536e+86
ExecutionTime = 180.42 s  ClockTime = 180 s

Time = 1983

smoothSolver:  Solving for Ux, Initial residual = 0.0541814, Final residual = 2.22956e-05, No Iterations 2
smoothSolver:  Solving for Uy, Initial residual = 0.0532441, Final residual = 2.12906e-05, No Iterations 2
smoothSolver:  Solving for Uz, Initial residual = 0.048996, Final residual = 2.2626e-05, No Iterations 2
GAMG:  Solving for p, Initial residual = 8.45321e-05, Final residual = 4.06077e-06, No Iterations 2
GAMG:  Solving for p, Initial residual = 3.79002e-05, Final residual = 3.58992e-06, No Iterations 1
GAMG:  Solving for p, Initial residual = 2.41141e-05, Final residual = 9.25403e-07, No Iterations 2
GAMG:  Solving for p, Initial residual = 1.68468e-05, Final residual = 1.46971e-06, No Iterations 1
GAMG:  Solving for p, Initial residual = 1.10063e-05, Final residual = 4.35038e-07, No Iterations 2
time step continuity errors : sum local = 1.8172e+88, global = -4.33625e+86, cumulative = -2.85089e+86
ExecutionTime = 180.51 s  ClockTime = 180 s

Time = 1984

smoothSolver:  Solving for Ux, Initial residual = 0.0525743, Final residual = 2.29796e-05, No Iterations 2
smoothSolver:  Solving for Uy, Initial residual = 0.053251, Final residual = 2.13773e-05, No Iterations 2
smoothSolver:  Solving for Uz, Initial residual = 0.0490616, Final residual = 2.35651e-05, No Iterations 2
GAMG:  Solving for p, Initial residual = 9.4235e-05, Final residual = 4.38648e-06, No Iterations 2
GAMG:  Solving for p, Initial residual = 4.18184e-05, Final residual = 4.09277e-06, No Iterations 1
GAMG:  Solving for p, Initial residual = 2.71885e-05, Final residual = 1.07557e-06, No Iterations 2
GAMG:  Solving for p, Initial residual = 1.88016e-05, Final residual = 1.68986e-06, No Iterations 1
GAMG:  Solving for p, Initial residual = 1.26881e-05, Final residual = 5.08618e-07, No Iterations 2
time step continuity errors : sum local = 2.10355e+88, global = -6.93728e+85, cumulative = -3.54462e+86
ExecutionTime = 180.61 s  ClockTime = 181 s

Time = 1985

smoothSolver:  Solving for Ux, Initial residual = 0.0540653, Final residual = 2.25156e-05, No Iterations 2
smoothSolver:  Solving for Uy, Initial residual = 0.0531147, Final residual = 2.11062e-05, No Iterations 2
smoothSolver:  Solving for Uz, Initial residual = 0.0490964, Final residual = 2.3585e-05, No Iterations 2
GAMG:  Solving for p, Initial residual = 8.3347e-05, Final residual = 3.91319e-06, No Iterations 2
GAMG:  Solving for p, Initial residual = 3.72646e-05, Final residual = 3.50869e-06, No Iterations 1
GAMG:  Solving for p, Initial residual = 2.36083e-05, Final residual = 8.98489e-07, No Iterations 2
GAMG:  Solving for p, Initial residual = 1.6647e-05, Final residual = 1.44425e-06, No Iterations 1
GAMG:  Solving for p, Initial residual = 1.09575e-05, Final residual = 1.09541e-06, No Iterations 1
time step continuity errors : sum local = 5.87669e+88, global = 5.05997e+86, cumulative = 1.51535e+86
ExecutionTime = 180.69 s  ClockTime = 181 s

Time = 1986

smoothSolver:  Solving for Ux, Initial residual = 0.0524578, Final residual = 2.30653e-05, No Iterations 2
smoothSolver:  Solving for Uy, Initial residual = 0.0530466, Final residual = 2.12227e-05, No Iterations 2
smoothSolver:  Solving for Uz, Initial residual = 0.0492609, Final residual = 2.34791e-05, No Iterations 2
GAMG:  Solving for p, Initial residual = 0.000121585, Final residual = 5.57381e-06, No Iterations 2
GAMG:  Solving for p, Initial residual = 5.38185e-05, Final residual = 5.22361e-06, No Iterations 1
GAMG:  Solving for p, Initial residual = 3.4972e-05, Final residual = 1.38512e-06, No Iterations 2
GAMG:  Solving for p, Initial residual = 2.45188e-05, Final residual = 2.19773e-06, No Iterations 1
GAMG:  Solving for p, Initial residual = 1.64643e-05, Final residual = 6.55409e-07, No Iterations 2
time step continuity errors : sum local = 2.6891e+88, global = 1.50503e+86, cumulative = 3.02038e+86
ExecutionTime = 180.78 s  ClockTime = 181 s

Time = 1987

smoothSolver:  Solving for Ux, Initial residual = 0.0537781, Final residual = 2.28978e-05, No Iterations 2
smoothSolver:  Solving for Uy, Initial residual = 0.0529553, Final residual = 2.15808e-05, No Iterations 2
smoothSolver:  Solving for Uz, Initial residual = 0.0496549, Final residual = 2.34055e-05, No Iterations 2
GAMG:  Solving for p, Initial residual = 7.843e-05, Final residual = 3.60483e-06, No Iterations 2
GAMG:  Solving for p, Initial residual = 3.54516e-05, Final residual = 3.27614e-06, No Iterations 1
GAMG:  Solving for p, Initial residual = 2.29662e-05, Final residual = 8.28493e-07, No Iterations 2
GAMG:  Solving for p, Initial residual = 1.65544e-05, Final residual = 1.4556e-06, No Iterations 1
GAMG:  Solving for p, Initial residual = 1.08101e-05, Final residual = 4.30191e-07, No Iterations 2
time step continuity errors : sum local = 3.16238e+88, global = 1.5317e+85, cumulative = 3.17355e+86
ExecutionTime = 180.88 s  ClockTime = 181 s

Time = 1988

smoothSolver:  Solving for Ux, Initial residual = 0.0523298, Final residual = 2.30854e-05, No Iterations 2
smoothSolver:  Solving for Uy, Initial residual = 0.0530857, Final residual = 2.17797e-05, No Iterations 2
smoothSolver:  Solving for Uz, Initial residual = 0.0497853, Final residual = 2.32367e-05, No Iterations 2
GAMG:  Solving for p, Initial residual = 8.76202e-05, Final residual = 4.10694e-06, No Iterations 2
GAMG:  Solving for p, Initial residual = 3.90378e-05, Final residual = 3.75671e-06, No Iterations 1
GAMG:  Solving for p, Initial residual = 2.57341e-05, Final residual = 9.92125e-07, No Iterations 2
GAMG:  Solving for p, Initial residual = 1.80136e-05, Final residual = 1.61969e-06, No Iterations 1
GAMG:  Solving for p, Initial residual = 1.20968e-05, Final residual = 4.8517e-07, No Iterations 2
time step continuity errors : sum local = 3.53532e+88, global = -9.46495e+85, cumulative = 2.22705e+86
ExecutionTime = 180.96 s  ClockTime = 181 s

Time = 1989

smoothSolver:  Solving for Ux, Initial residual = 0.0540109, Final residual = 2.31305e-05, No Iterations 2
smoothSolver:  Solving for Uy, Initial residual = 0.052919, Final residual = 2.19512e-05, No Iterations 2
smoothSolver:  Solving for Uz, Initial residual = 0.049568, Final residual = 2.29117e-05, No Iterations 2
GAMG:  Solving for p, Initial residual = 8.01331e-05, Final residual = 3.76848e-06, No Iterations 2
GAMG:  Solving for p, Initial residual = 3.57189e-05, Final residual = 3.35831e-06, No Iterations 1
GAMG:  Solving for p, Initial residual = 2.27012e-05, Final residual = 8.54476e-07, No Iterations 2
GAMG:  Solving for p, Initial residual = 1.60272e-05, Final residual = 1.41439e-06, No Iterations 1
GAMG:  Solving for p, Initial residual = 1.05716e-05, Final residual = 4.19517e-07, No Iterations 2
time step continuity errors : sum local = 3.81837e+88, global = 2.84773e+86, cumulative = 5.07478e+86
ExecutionTime = 181.06 s  ClockTime = 181 s

Time = 1990

smoothSolver:  Solving for Ux, Initial residual = 0.0525887, Final residual = 2.36049e-05, No Iterations 2
smoothSolver:  Solving for Uy, Initial residual = 0.0530604, Final residual = 2.23978e-05, No Iterations 2
smoothSolver:  Solving for Uz, Initial residual = 0.0496619, Final residual = 2.37974e-05, No Iterations 2
GAMG:  Solving for p, Initial residual = 7.77274e-05, Final residual = 3.63622e-06, No Iterations 2
GAMG:  Solving for p, Initial residual = 3.46924e-05, Final residual = 3.34606e-06, No Iterations 1
GAMG:  Solving for p, Initial residual = 2.28054e-05, Final residual = 8.77428e-07, No Iterations 2
GAMG:  Solving for p, Initial residual = 1.58247e-05, Final residual = 1.42369e-06, No Iterations 1
GAMG:  Solving for p, Initial residual = 1.05201e-05, Final residual = 4.23286e-07, No Iterations 2
time step continuity errors : sum local = 4.38728e+88, global = 2.29608e+86, cumulative = 7.37085e+86
ExecutionTime = 181.15 s  ClockTime = 181 s

Time = 1991

smoothSolver:  Solving for Ux, Initial residual = 0.0540198, Final residual = 2.3106e-05, No Iterations 2
smoothSolver:  Solving for Uy, Initial residual = 0.0529773, Final residual = 2.18127e-05, No Iterations 2
smoothSolver:  Solving for Uz, Initial residual = 0.0491989, Final residual = 2.2881e-05, No Iterations 2
GAMG:  Solving for p, Initial residual = 7.95104e-05, Final residual = 3.78232e-06, No Iterations 2
GAMG:  Solving for p, Initial residual = 3.54791e-05, Final residual = 3.35493e-06, No Iterations 1
GAMG:  Solving for p, Initial residual = 2.2748e-05, Final residual = 8.56911e-07, No Iterations 2
GAMG:  Solving for p, Initial residual = 1.5811e-05, Final residual = 1.39512e-06, No Iterations 1
GAMG:  Solving for p, Initial residual = 1.03462e-05, Final residual = 4.15413e-07, No Iterations 2
time step continuity errors : sum local = 4.80132e+88, global = -6.73791e+86, cumulative = 6.32942e+85
ExecutionTime = 181.24 s  ClockTime = 181 s

Time = 1992

smoothSolver:  Solving for Ux, Initial residual = 0.0525703, Final residual = 2.34442e-05, No Iterations 2
smoothSolver:  Solving for Uy, Initial residual = 0.0531328, Final residual = 2.20444e-05, No Iterations 2
smoothSolver:  Solving for Uz, Initial residual = 0.0491581, Final residual = 2.40178e-05, No Iterations 2
GAMG:  Solving for p, Initial residual = 9.28136e-05, Final residual = 4.38396e-06, No Iterations 2
GAMG:  Solving for p, Initial residual = 4.17242e-05, Final residual = 4.0614e-06, No Iterations 1
GAMG:  Solving for p, Initial residual = 2.70636e-05, Final residual = 1.06904e-06, No Iterations 2
GAMG:  Solving for p, Initial residual = 1.86576e-05, Final residual = 1.68209e-06, No Iterations 1
GAMG:  Solving for p, Initial residual = 1.24708e-05, Final residual = 4.95205e-07, No Iterations 2
time step continuity errors : sum local = 5.36512e+88, global = 3.46475e+86, cumulative = 4.09769e+86
ExecutionTime = 181.33 s  ClockTime = 181 s

Time = 1993

smoothSolver:  Solving for Ux, Initial residual = 0.0541151, Final residual = 2.32622e-05, No Iterations 2
smoothSolver:  Solving for Uy, Initial residual = 0.0532562, Final residual = 2.11926e-05, No Iterations 2
smoothSolver:  Solving for Uz, Initial residual = 0.049513, Final residual = 2.28302e-05, No Iterations 2
GAMG:  Solving for p, Initial residual = 8.1526e-05, Final residual = 3.79666e-06, No Iterations 2
GAMG:  Solving for p, Initial residual = 3.63843e-05, Final residual = 3.42499e-06, No Iterations 1
GAMG:  Solving for p, Initial residual = 2.32072e-05, Final residual = 8.82788e-07, No Iterations 2
GAMG:  Solving for p, Initial residual = 1.62241e-05, Final residual = 1.40988e-06, No Iterations 1
GAMG:  Solving for p, Initial residual = 1.07298e-05, Final residual = 1.05936e-06, No Iterations 1
time step continuity errors : sum local = 1.5031e+89, global = 1.49919e+87, cumulative = 1.90896e+87
ExecutionTime = 181.42 s  ClockTime = 181 s

Time = 1994

smoothSolver:  Solving for Ux, Initial residual = 0.0525548, Final residual = 2.34684e-05, No Iterations 2
smoothSolver:  Solving for Uy, Initial residual = 0.0533174, Final residual = 2.1275e-05, No Iterations 2
smoothSolver:  Solving for Uz, Initial residual = 0.0494289, Final residual = 2.36873e-05, No Iterations 2
GAMG:  Solving for p, Initial residual = 0.000101956, Final residual = 4.70621e-06, No Iterations 2
GAMG:  Solving for p, Initial residual = 4.56151e-05, Final residual = 4.41225e-06, No Iterations 1
GAMG:  Solving for p, Initial residual = 2.97998e-05, Final residual = 1.15389e-06, No Iterations 2
GAMG:  Solving for p, Initial residual = 2.04587e-05, Final residual = 1.85131e-06, No Iterations 1
GAMG:  Solving for p, Initial residual = 1.3574e-05, Final residual = 5.32524e-07, No Iterations 2
time step continuity errors : sum local = 6.66253e+88, global = 7.50551e+86, cumulative = 2.65951e+87
ExecutionTime = 181.51 s  ClockTime = 181 s

Time = 1995

smoothSolver:  Solving for Ux, Initial residual = 0.0539785, Final residual = 2.27597e-05, No Iterations 2
smoothSolver:  Solving for Uy, Initial residual = 0.0531983, Final residual = 2.11239e-05, No Iterations 2
smoothSolver:  Solving for Uz, Initial residual = 0.0495481, Final residual = 2.29894e-05, No Iterations 2
GAMG:  Solving for p, Initial residual = 8.34181e-05, Final residual = 3.87016e-06, No Iterations 2
GAMG:  Solving for p, Initial residual = 3.77711e-05, Final residual = 3.50773e-06, No Iterations 1
GAMG:  Solving for p, Initial residual = 2.43764e-05, Final residual = 8.92686e-07, No Iterations 2
GAMG:  Solving for p, Initial residual = 1.69366e-05, Final residual = 1.49079e-06, No Iterations 1
GAMG:  Solving for p, Initial residual = 1.10664e-05, Final residual = 4.42918e-07, No Iterations 2
time step continuity errors : sum local = 7.83878e+88, global = -1.00555e+87, cumulative = 1.65397e+87
ExecutionTime = 181.6 s  ClockTime = 182 s

Time = 1996

smoothSolver:  Solving for Ux, Initial residual = 0.0523176, Final residual = 2.26802e-05, No Iterations 2
smoothSolver:  Solving for Uy, Initial residual = 0.0534855, Final residual = 2.1387e-05, No Iterations 2
smoothSolver:  Solving for Uz, Initial residual = 0.0501132, Final residual = 2.33941e-05, No Iterations 2
GAMG:  Solving for p, Initial residual = 8.89019e-05, Final residual = 4.09172e-06, No Iterations 2
GAMG:  Solving for p, Initial residual = 4.01105e-05, Final residual = 3.8439e-06, No Iterations 1
GAMG:  Solving for p, Initial residual = 2.66016e-05, Final residual = 1.00615e-06, No Iterations 2
GAMG:  Solving for p, Initial residual = 1.85108e-05, Final residual = 1.6809e-06, No Iterations 1
GAMG:  Solving for p, Initial residual = 1.23862e-05, Final residual = 4.8475e-07, No Iterations 2
time step continuity errors : sum local = 8.90781e+88, global = 9.96062e+86, cumulative = 2.65003e+87
ExecutionTime = 181.69 s  ClockTime = 182 s

Time = 1997

smoothSolver:  Solving for Ux, Initial residual = 0.0539687, Final residual = 2.21914e-05, No Iterations 2
smoothSolver:  Solving for Uy, Initial residual = 0.0532318, Final residual = 2.13233e-05, No Iterations 2
smoothSolver:  Solving for Uz, Initial residual = 0.0497504, Final residual = 2.24297e-05, No Iterations 2
GAMG:  Solving for p, Initial residual = 6.08162e-05, Final residual = 2.86698e-06, No Iterations 2
GAMG:  Solving for p, Initial residual = 2.73318e-05, Final residual = 2.55892e-06, No Iterations 1
GAMG:  Solving for p, Initial residual = 1.8616e-05, Final residual = 6.55049e-07, No Iterations 2
GAMG:  Solving for p, Initial residual = 1.30285e-05, Final residual = 1.12001e-06, No Iterations 1
GAMG:  Solving for p, Initial residual = 8.24136e-06, Final residual = 3.24771e-07, No Iterations 2
time step continuity errors : sum local = 1.01973e+89, global = -1.63792e+87, cumulative = 1.01211e+87
ExecutionTime = 181.78 s  ClockTime = 182 s

Time = 1998

smoothSolver:  Solving for Ux, Initial residual = 0.0524309, Final residual = 2.24814e-05, No Iterations 2
smoothSolver:  Solving for Uy, Initial residual = 0.0531995, Final residual = 2.17149e-05, No Iterations 2
smoothSolver:  Solving for Uz, Initial residual = 0.0496398, Final residual = 2.33231e-05, No Iterations 2
GAMG:  Solving for p, Initial residual = 8.67812e-05, Final residual = 4.06682e-06, No Iterations 2
GAMG:  Solving for p, Initial residual = 3.92309e-05, Final residual = 3.76629e-06, No Iterations 1
GAMG:  Solving for p, Initial residual = 2.56302e-05, Final residual = 9.59856e-07, No Iterations 2
GAMG:  Solving for p, Initial residual = 1.76138e-05, Final residual = 1.57039e-06, No Iterations 1
GAMG:  Solving for p, Initial residual = 1.18264e-05, Final residual = 4.5659e-07, No Iterations 2
time step continuity errors : sum local = 1.10158e+89, global = 1.86039e+87, cumulative = 2.87251e+87
ExecutionTime = 181.87 s  ClockTime = 182 s

Time = 1999

smoothSolver:  Solving for Ux, Initial residual = 0.0539494, Final residual = 2.23594e-05, No Iterations 2
smoothSolver:  Solving for Uy, Initial residual = 0.0532052, Final residual = 2.15797e-05, No Iterations 2
smoothSolver:  Solving for Uz, Initial residual = 0.049397, Final residual = 2.25149e-05, No Iterations 2
GAMG:  Solving for p, Initial residual = 7.60682e-05, Final residual = 3.63079e-06, No Iterations 2
GAMG:  Solving for p, Initial residual = 3.42931e-05, Final residual = 3.24079e-06, No Iterations 1
GAMG:  Solving for p, Initial residual = 2.26919e-05, Final residual = 8.35709e-07, No Iterations 2
GAMG:  Solving for p, Initial residual = 1.60484e-05, Final residual = 1.38037e-06, No Iterations 1
GAMG:  Solving for p, Initial residual = 1.01786e-05, Final residual = 4.05742e-07, No Iterations 2
time step continuity errors : sum local = 1.27919e+89, global = -2.20134e+87, cumulative = 6.71164e+86
ExecutionTime = 181.96 s  ClockTime = 182 s

Time = 2000

smoothSolver:  Solving for Ux, Initial residual = 0.0525545, Final residual = 2.24422e-05, No Iterations 2
smoothSolver:  Solving for Uy, Initial residual = 0.0531812, Final residual = 2.15181e-05, No Iterations 2
smoothSolver:  Solving for Uz, Initial residual = 0.0489533, Final residual = 2.30935e-05, No Iterations 2
GAMG:  Solving for p, Initial residual = 9.43763e-05, Final residual = 4.48811e-06, No Iterations 2
GAMG:  Solving for p, Initial residual = 4.24479e-05, Final residual = 4.12381e-06, No Iterations 1
GAMG:  Solving for p, Initial residual = 2.74875e-05, Final residual = 1.06951e-06, No Iterations 2
GAMG:  Solving for p, Initial residual = 1.89485e-05, Final residual = 1.69012e-06, No Iterations 1
GAMG:  Solving for p, Initial residual = 1.2713e-05, Final residual = 5.0194e-07, No Iterations 2
time step continuity errors : sum local = 1.4051e+89, global = 7.54678e+86, cumulative = 1.42584e+87
ExecutionTime = 182.28 s  ClockTime = 182 s

End

