/*---------------------------------------------------------------------------*\
| =========                 |                                                 |
| \\      /  F ield         | OpenFOAM: The Open Source CFD Toolbox           |
|  \\    /   O peration     | Version:  2506                                  |
|   \\  /    A nd           | Website:  www.openfoam.com                      |
|    \\/     M anipulation  |                                                 |
\*---------------------------------------------------------------------------*/
Build  : _615aae61-20250627 OPENFOAM=2506 version=2506
Arch   : "LSB;label=32;scalar=64"
Exec   : simpleFoam -noFunctionObjects -case /home/ubuntu/fan_CFD_dataset/cases/fan_5
Date   : Nov 07 2025
Time   : 15:18:43
Host   : ip-172-31-37-87
PID    : 179616
I/O    : uncollated
Case   : /home/ubuntu/fan_CFD_dataset/cases/fan_5
nProcs : 1
trapFpe: Floating point exception trapping enabled (FOAM_SIGFPE).
fileModificationChecking : Monitoring run-time modified files using timeStampMaster (fileModificationSkew 5, maxFileModificationPolls 20)
allowSystemOperations : Allowing user-supplied system call operations

// * * * * * * * * * * * * * * * * * * * * * * * * * * * * * * * * * * * * * //
Create time

Create mesh for time = 0


SIMPLE: convergence criteria
    field U	 tolerance 1e-05
    field p	 tolerance 0.0001

Reading field p

Reading field U

Reading/calculating face flux field phi

Selecting incompressible transport model Newtonian
Selecting turbulence model type laminar
Selecting laminar stress model Stokes
No MRF models present

No finite volume options present

Starting time loop

Time = 1

smoothSolver:  Solving for Ux, Initial residual = 1, Final residual = 0.000298612, No Iterations 2
smoothSolver:  Solving for Uy, Initial residual = 1, Final residual = 0.000318855, No Iterations 2
smoothSolver:  Solving for Uz, Initial residual = 1, Final residual = 0.000588681, No Iterations 2
GAMG:  Solving for p, Initial residual = 1, Final residual = 0.0589519, No Iterations 3
GAMG:  Solving for p, Initial residual = 0.118767, Final residual = 0.00789623, No Iterations 1
GAMG:  Solving for p, Initial residual = 0.0308718, Final residual = 0.0030069, No Iterations 1
GAMG:  Solving for p, Initial residual = 0.0157562, Final residual = 0.000682506, No Iterations 2
GAMG:  Solving for p, Initial residual = 0.011005, Final residual = 0.000794156, No Iterations 1
time step continuity errors : sum local = 7.3119, global = -2.56154, cumulative = -2.56154
ExecutionTime = 0.22 s  ClockTime = 0 s

Time = 2

smoothSolver:  Solving for Ux, Initial residual = 0.0738826, Final residual = 2.8961e-05, No Iterations 2
smoothSolver:  Solving for Uy, Initial residual = 0.0739262, Final residual = 2.95087e-05, No Iterations 2
smoothSolver:  Solving for Uz, Initial residual = 0.150107, Final residual = 5.1574e-05, No Iterations 2
GAMG:  Solving for p, Initial residual = 0.669112, Final residual = 0.0432771, No Iterations 3
GAMG:  Solving for p, Initial residual = 0.0698126, Final residual = 0.00475891, No Iterations 1
GAMG:  Solving for p, Initial residual = 0.0211394, Final residual = 0.00202794, No Iterations 1
GAMG:  Solving for p, Initial residual = 0.0113638, Final residual = 0.000510562, No Iterations 2
GAMG:  Solving for p, Initial residual = 0.00826687, Final residual = 0.000610925, No Iterations 1
time step continuity errors : sum local = 8.40418, global = -2.55997, cumulative = -5.12151
ExecutionTime = 0.29 s  ClockTime = 0 s

Time = 3

smoothSolver:  Solving for Ux, Initial residual = 0.186814, Final residual = 9.0209e-05, No Iterations 2
smoothSolver:  Solving for Uy, Initial residual = 0.190813, Final residual = 9.38953e-05, No Iterations 2
smoothSolver:  Solving for Uz, Initial residual = 0.429974, Final residual = 0.000176989, No Iterations 2
GAMG:  Solving for p, Initial residual = 0.112382, Final residual = 0.0102497, No Iterations 2
GAMG:  Solving for p, Initial residual = 0.0643814, Final residual = 0.00432751, No Iterations 1
GAMG:  Solving for p, Initial residual = 0.0197192, Final residual = 0.000934165, No Iterations 2
GAMG:  Solving for p, Initial residual = 0.0151248, Final residual = 0.00105266, No Iterations 1
GAMG:  Solving for p, Initial residual = 0.00602275, Final residual = 0.000276152, No Iterations 2
time step continuity errors : sum local = 2.01512, global = -0.315723, cumulative = -5.43723
ExecutionTime = 0.36 s  ClockTime = 0 s

Time = 4

smoothSolver:  Solving for Ux, Initial residual = 0.176315, Final residual = 8.15619e-05, No Iterations 2
smoothSolver:  Solving for Uy, Initial residual = 0.176231, Final residual = 8.27993e-05, No Iterations 2
smoothSolver:  Solving for Uz, Initial residual = 0.51137, Final residual = 0.000212892, No Iterations 2
GAMG:  Solving for p, Initial residual = 0.0493348, Final residual = 0.00405176, No Iterations 1
GAMG:  Solving for p, Initial residual = 0.0157893, Final residual = 0.000805531, No Iterations 2
GAMG:  Solving for p, Initial residual = 0.0122305, Final residual = 0.000842508, No Iterations 1
GAMG:  Solving for p, Initial residual = 0.00484452, Final residual = 0.000222163, No Iterations 2
GAMG:  Solving for p, Initial residual = 0.0039503, Final residual = 0.000289732, No Iterations 1
time step continuity errors : sum local = 1.34786, global = -0.371169, cumulative = -5.8084
ExecutionTime = 0.43 s  ClockTime = 0 s

Time = 5

smoothSolver:  Solving for Ux, Initial residual = 0.132746, Final residual = 5.7557e-05, No Iterations 2
smoothSolver:  Solving for Uy, Initial residual = 0.132684, Final residual = 5.83252e-05, No Iterations 2
smoothSolver:  Solving for Uz, Initial residual = 0.473064, Final residual = 0.000188449, No Iterations 2
GAMG:  Solving for p, Initial residual = 0.0502134, Final residual = 0.00310897, No Iterations 2
GAMG:  Solving for p, Initial residual = 0.103407, Final residual = 0.00707098, No Iterations 1
GAMG:  Solving for p, Initial residual = 0.040907, Final residual = 0.00199532, No Iterations 2
GAMG:  Solving for p, Initial residual = 0.0506996, Final residual = 0.00350511, No Iterations 1
GAMG:  Solving for p, Initial residual = 0.0217257, Final residual = 0.000999186, No Iterations 2
time step continuity errors : sum local = 0.997394, global = 0.157139, cumulative = -5.65126
ExecutionTime = 0.5 s  ClockTime = 0 s

Time = 6

smoothSolver:  Solving for Ux, Initial residual = 0.0914244, Final residual = 3.91042e-05, No Iterations 2
smoothSolver:  Solving for Uy, Initial residual = 0.0911935, Final residual = 3.88997e-05, No Iterations 2
smoothSolver:  Solving for Uz, Initial residual = 0.369298, Final residual = 0.000144978, No Iterations 2
GAMG:  Solving for p, Initial residual = 0.0701608, Final residual = 0.00636427, No Iterations 2
GAMG:  Solving for p, Initial residual = 0.183509, Final residual = 0.0125981, No Iterations 1
GAMG:  Solving for p, Initial residual = 0.0615715, Final residual = 0.00298271, No Iterations 2
GAMG:  Solving for p, Initial residual = 0.0394078, Final residual = 0.00275206, No Iterations 1
GAMG:  Solving for p, Initial residual = 0.0154245, Final residual = 0.000711953, No Iterations 2
time step continuity errors : sum local = 1.8762, global = 0.300072, cumulative = -5.35119
ExecutionTime = 0.58 s  ClockTime = 0 s

Time = 7

smoothSolver:  Solving for Ux, Initial residual = 0.0576082, Final residual = 2.68003e-05, No Iterations 2
smoothSolver:  Solving for Uy, Initial residual = 0.0575197, Final residual = 2.64132e-05, No Iterations 2
smoothSolver:  Solving for Uz, Initial residual = 0.222231, Final residual = 9.26605e-05, No Iterations 2
GAMG:  Solving for p, Initial residual = 0.11096, Final residual = 0.0109475, No Iterations 2
GAMG:  Solving for p, Initial residual = 0.126144, Final residual = 0.00864038, No Iterations 1
GAMG:  Solving for p, Initial residual = 0.0403369, Final residual = 0.00194573, No Iterations 2
GAMG:  Solving for p, Initial residual = 0.0278281, Final residual = 0.00195156, No Iterations 1
GAMG:  Solving for p, Initial residual = 0.0110109, Final residual = 0.000510544, No Iterations 2
time step continuity errors : sum local = 2.17723, global = 0.3502, cumulative = -5.00099
ExecutionTime = 0.65 s  ClockTime = 0 s

Time = 8

smoothSolver:  Solving for Ux, Initial residual = 0.0392803, Final residual = 2.08208e-05, No Iterations 2
smoothSolver:  Solving for Uy, Initial residual = 0.0397, Final residual = 2.08638e-05, No Iterations 2
smoothSolver:  Solving for Uz, Initial residual = 0.0927989, Final residual = 4.80368e-05, No Iterations 2
GAMG:  Solving for p, Initial residual = 0.256303, Final residual = 0.0237821, No Iterations 2
GAMG:  Solving for p, Initial residual = 0.0976116, Final residual = 0.00665369, No Iterations 1
GAMG:  Solving for p, Initial residual = 0.0307724, Final residual = 0.00146825, No Iterations 2
GAMG:  Solving for p, Initial residual = 0.0221417, Final residual = 0.00155546, No Iterations 1
GAMG:  Solving for p, Initial residual = 0.00890487, Final residual = 0.000412345, No Iterations 2
time step continuity errors : sum local = 1.94517, global = 0.317408, cumulative = -4.68358
ExecutionTime = 0.71 s  ClockTime = 0 s

Time = 9

smoothSolver:  Solving for Ux, Initial residual = 0.0424143, Final residual = 2.3146e-05, No Iterations 2
smoothSolver:  Solving for Uy, Initial residual = 0.0436584, Final residual = 2.38767e-05, No Iterations 2
smoothSolver:  Solving for Uz, Initial residual = 0.106941, Final residual = 5.00209e-05, No Iterations 2
GAMG:  Solving for p, Initial residual = 0.212094, Final residual = 0.0145783, No Iterations 2
GAMG:  Solving for p, Initial residual = 0.0734957, Final residual = 0.00501657, No Iterations 1
GAMG:  Solving for p, Initial residual = 0.0237407, Final residual = 0.00112476, No Iterations 2
GAMG:  Solving for p, Initial residual = 0.0177563, Final residual = 0.00125525, No Iterations 1
GAMG:  Solving for p, Initial residual = 0.00731554, Final residual = 0.000338245, No Iterations 2
time step continuity errors : sum local = 1.37459, global = 0.219033, cumulative = -4.46455
ExecutionTime = 0.79 s  ClockTime = 0 s

Time = 10

smoothSolver:  Solving for Ux, Initial residual = 0.0556538, Final residual = 2.96166e-05, No Iterations 2
smoothSolver:  Solving for Uy, Initial residual = 0.0569115, Final residual = 2.9913e-05, No Iterations 2
smoothSolver:  Solving for Uz, Initial residual = 0.202689, Final residual = 8.23781e-05, No Iterations 2
GAMG:  Solving for p, Initial residual = 0.131776, Final residual = 0.0113822, No Iterations 1
GAMG:  Solving for p, Initial residual = 0.041184, Final residual = 0.00207528, No Iterations 2
GAMG:  Solving for p, Initial residual = 0.0272547, Final residual = 0.0018735, No Iterations 1
GAMG:  Solving for p, Initial residual = 0.0105187, Final residual = 0.000477056, No Iterations 2
GAMG:  Solving for p, Initial residual = 0.00824684, Final residual = 0.000602271, No Iterations 1
time step continuity errors : sum local = 1.63144, global = 0.474324, cumulative = -3.99022
ExecutionTime = 0.86 s  ClockTime = 0 s

Time = 11

smoothSolver:  Solving for Ux, Initial residual = 0.064518, Final residual = 3.33313e-05, No Iterations 2
smoothSolver:  Solving for Uy, Initial residual = 0.0657876, Final residual = 3.36203e-05, No Iterations 2
smoothSolver:  Solving for Uz, Initial residual = 0.262455, Final residual = 0.00010176, No Iterations 2
GAMG:  Solving for p, Initial residual = 0.113087, Final residual = 0.00839796, No Iterations 1
GAMG:  Solving for p, Initial residual = 0.0396499, Final residual = 0.00170885, No Iterations 2
GAMG:  Solving for p, Initial residual = 0.0307591, Final residual = 0.00207883, No Iterations 1
GAMG:  Solving for p, Initial residual = 0.0117741, Final residual = 0.000518422, No Iterations 2
GAMG:  Solving for p, Initial residual = 0.00983446, Final residual = 0.000688749, No Iterations 1
time step continuity errors : sum local = 0.783601, global = -0.236839, cumulative = -4.22706
ExecutionTime = 0.92 s  ClockTime = 0 s

Time = 12

smoothSolver:  Solving for Ux, Initial residual = 0.0646794, Final residual = 3.45779e-05, No Iterations 2
smoothSolver:  Solving for Uy, Initial residual = 0.0657401, Final residual = 3.44782e-05, No Iterations 2
smoothSolver:  Solving for Uz, Initial residual = 0.263154, Final residual = 0.000100541, No Iterations 2
GAMG:  Solving for p, Initial residual = 0.115076, Final residual = 0.00539882, No Iterations 2
GAMG:  Solving for p, Initial residual = 0.235645, Final residual = 0.0161488, No Iterations 1
GAMG:  Solving for p, Initial residual = 0.0762632, Final residual = 0.00366368, No Iterations 2
GAMG:  Solving for p, Initial residual = 0.0455107, Final residual = 0.00313557, No Iterations 1
GAMG:  Solving for p, Initial residual = 0.0176432, Final residual = 0.000806205, No Iterations 2
time step continuity errors : sum local = 0.721617, global = -0.122196, cumulative = -4.34926
ExecutionTime = 0.99 s  ClockTime = 1 s

Time = 13

smoothSolver:  Solving for Ux, Initial residual = 0.0557416, Final residual = 3.10173e-05, No Iterations 2
smoothSolver:  Solving for Uy, Initial residual = 0.0565553, Final residual = 3.14378e-05, No Iterations 2
smoothSolver:  Solving for Uz, Initial residual = 0.198625, Final residual = 8.01802e-05, No Iterations 2
GAMG:  Solving for p, Initial residual = 0.138912, Final residual = 0.00888618, No Iterations 2
GAMG:  Solving for p, Initial residual = 0.135279, Final residual = 0.00937278, No Iterations 1
GAMG:  Solving for p, Initial residual = 0.0433487, Final residual = 0.00210882, No Iterations 2
GAMG:  Solving for p, Initial residual = 0.0296608, Final residual = 0.00206948, No Iterations 1
GAMG:  Solving for p, Initial residual = 0.0115812, Final residual = 0.000536242, No Iterations 2
time step continuity errors : sum local = 0.959264, global = -0.16078, cumulative = -4.51004
ExecutionTime = 1.06 s  ClockTime = 1 s

Time = 14

smoothSolver:  Solving for Ux, Initial residual = 0.0444712, Final residual = 2.57951e-05, No Iterations 2
smoothSolver:  Solving for Uy, Initial residual = 0.0451164, Final residual = 2.65125e-05, No Iterations 2
smoothSolver:  Solving for Uz, Initial residual = 0.102926, Final residual = 5.05895e-05, No Iterations 2
GAMG:  Solving for p, Initial residual = 0.217788, Final residual = 0.0158334, No Iterations 2
GAMG:  Solving for p, Initial residual = 0.103629, Final residual = 0.00723366, No Iterations 1
GAMG:  Solving for p, Initial residual = 0.0328969, Final residual = 0.0016029, No Iterations 2
GAMG:  Solving for p, Initial residual = 0.0236799, Final residual = 0.0016693, No Iterations 1
GAMG:  Solving for p, Initial residual = 0.00940903, Final residual = 0.000436865, No Iterations 2
time step continuity errors : sum local = 0.952705, global = -0.158303, cumulative = -4.66834
ExecutionTime = 1.14 s  ClockTime = 1 s

Time = 15

smoothSolver:  Solving for Ux, Initial residual = 0.0386662, Final residual = 2.23051e-05, No Iterations 2
smoothSolver:  Solving for Uy, Initial residual = 0.0394006, Final residual = 2.31299e-05, No Iterations 2
smoothSolver:  Solving for Uz, Initial residual = 0.0630593, Final residual = 3.61218e-05, No Iterations 2
GAMG:  Solving for p, Initial residual = 0.33572, Final residual = 0.0231415, No Iterations 2
GAMG:  Solving for p, Initial residual = 0.0806718, Final residual = 0.00569223, No Iterations 1
GAMG:  Solving for p, Initial residual = 0.0259335, Final residual = 0.00127076, No Iterations 2
GAMG:  Solving for p, Initial residual = 0.0194274, Final residual = 0.00138943, No Iterations 1
GAMG:  Solving for p, Initial residual = 0.00789067, Final residual = 0.00036949, No Iterations 2
time step continuity errors : sum local = 0.76201, global = -0.124743, cumulative = -4.79308
ExecutionTime = 1.21 s  ClockTime = 1 s

Time = 16

smoothSolver:  Solving for Ux, Initial residual = 0.0380252, Final residual = 2.11038e-05, No Iterations 2
smoothSolver:  Solving for Uy, Initial residual = 0.038678, Final residual = 2.16056e-05, No Iterations 2
smoothSolver:  Solving for Uz, Initial residual = 0.112625, Final residual = 4.70508e-05, No Iterations 2
GAMG:  Solving for p, Initial residual = 0.153576, Final residual = 0.00803892, No Iterations 2
GAMG:  Solving for p, Initial residual = 0.0561504, Final residual = 0.004026, No Iterations 1
GAMG:  Solving for p, Initial residual = 0.019285, Final residual = 0.000963703, No Iterations 2
GAMG:  Solving for p, Initial residual = 0.0151386, Final residual = 0.00110289, No Iterations 1
GAMG:  Solving for p, Initial residual = 0.00635041, Final residual = 0.000301039, No Iterations 2
time step continuity errors : sum local = 0.473739, global = -0.0753374, cumulative = -4.86842
ExecutionTime = 1.27 s  ClockTime = 1 s

Time = 17

smoothSolver:  Solving for Ux, Initial residual = 0.0373228, Final residual = 1.98784e-05, No Iterations 2
smoothSolver:  Solving for Uy, Initial residual = 0.0377118, Final residual = 2.01623e-05, No Iterations 2
smoothSolver:  Solving for Uz, Initial residual = 0.141477, Final residual = 5.45512e-05, No Iterations 2
GAMG:  Solving for p, Initial residual = 0.112952, Final residual = 0.0106096, No Iterations 1
GAMG:  Solving for p, Initial residual = 0.0369931, Final residual = 0.00122269, No Iterations 2
GAMG:  Solving for p, Initial residual = 0.0184053, Final residual = 0.00146059, No Iterations 1
GAMG:  Solving for p, Initial residual = 0.00816108, Final residual = 0.000334976, No Iterations 2
GAMG:  Solving for p, Initial residual = 0.00573131, Final residual = 0.000467953, No Iterations 1
time step continuity errors : sum local = 0.419106, global = -0.0786727, cumulative = -4.94709
ExecutionTime = 1.35 s  ClockTime = 1 s

Time = 18

smoothSolver:  Solving for Ux, Initial residual = 0.0341477, Final residual = 1.83243e-05, No Iterations 2
smoothSolver:  Solving for Uy, Initial residual = 0.0342034, Final residual = 1.82202e-05, No Iterations 2
smoothSolver:  Solving for Uz, Initial residual = 0.134116, Final residual = 5.12409e-05, No Iterations 2
GAMG:  Solving for p, Initial residual = 0.105297, Final residual = 0.00415269, No Iterations 2
GAMG:  Solving for p, Initial residual = 0.123463, Final residual = 0.00848571, No Iterations 1
GAMG:  Solving for p, Initial residual = 0.0453488, Final residual = 0.00212889, No Iterations 2
GAMG:  Solving for p, Initial residual = 0.0526378, Final residual = 0.00362331, No Iterations 1
GAMG:  Solving for p, Initial residual = 0.0215058, Final residual = 0.000967699, No Iterations 2
time step continuity errors : sum local = 0.236786, global = 0.0406335, cumulative = -4.90646
ExecutionTime = 1.41 s  ClockTime = 1 s

Time = 19

smoothSolver:  Solving for Ux, Initial residual = 0.029124, Final residual = 1.61277e-05, No Iterations 2
smoothSolver:  Solving for Uy, Initial residual = 0.029106, Final residual = 1.60451e-05, No Iterations 2
smoothSolver:  Solving for Uz, Initial residual = 0.103862, Final residual = 4.05658e-05, No Iterations 2
GAMG:  Solving for p, Initial residual = 0.113279, Final residual = 0.00640963, No Iterations 2
GAMG:  Solving for p, Initial residual = 0.150069, Final residual = 0.010427, No Iterations 1
GAMG:  Solving for p, Initial residual = 0.047582, Final residual = 0.00232003, No Iterations 2
GAMG:  Solving for p, Initial residual = 0.0316758, Final residual = 0.00219566, No Iterations 1
GAMG:  Solving for p, Initial residual = 0.012238, Final residual = 0.000567917, No Iterations 2
time step continuity errors : sum local = 0.382902, global = 0.0667123, cumulative = -4.83975
ExecutionTime = 1.49 s  ClockTime = 1 s

Time = 20

smoothSolver:  Solving for Ux, Initial residual = 0.0246445, Final residual = 1.38446e-05, No Iterations 2
smoothSolver:  Solving for Uy, Initial residual = 0.0248675, Final residual = 1.41788e-05, No Iterations 2
smoothSolver:  Solving for Uz, Initial residual = 0.0643183, Final residual = 2.74445e-05, No Iterations 2
GAMG:  Solving for p, Initial residual = 0.142878, Final residual = 0.00973406, No Iterations 2
GAMG:  Solving for p, Initial residual = 0.106996, Final residual = 0.00750707, No Iterations 1
GAMG:  Solving for p, Initial residual = 0.0340774, Final residual = 0.00167206, No Iterations 2
GAMG:  Solving for p, Initial residual = 0.0241928, Final residual = 0.00170479, No Iterations 1
GAMG:  Solving for p, Initial residual = 0.00950674, Final residual = 0.000445448, No Iterations 2
time step continuity errors : sum local = 0.434439, global = 0.0758107, cumulative = -4.76394
ExecutionTime = 1.55 s  ClockTime = 1 s

Time = 21

smoothSolver:  Solving for Ux, Initial residual = 0.0226035, Final residual = 1.25342e-05, No Iterations 2
smoothSolver:  Solving for Uy, Initial residual = 0.0232493, Final residual = 1.31927e-05, No Iterations 2
smoothSolver:  Solving for Uz, Initial residual = 0.0337976, Final residual = 1.75705e-05, No Iterations 2
GAMG:  Solving for p, Initial residual = 0.243561, Final residual = 0.0168849, No Iterations 2
GAMG:  Solving for p, Initial residual = 0.0834273, Final residual = 0.00590495, No Iterations 1
GAMG:  Solving for p, Initial residual = 0.0268714, Final residual = 0.0013218, No Iterations 2
GAMG:  Solving for p, Initial residual = 0.0198458, Final residual = 0.00141841, No Iterations 1
GAMG:  Solving for p, Initial residual = 0.00797064, Final residual = 0.000375513, No Iterations 2
time step continuity errors : sum local = 0.391204, global = 0.0675367, cumulative = -4.6964
ExecutionTime = 1.62 s  ClockTime = 1 s

Time = 22

smoothSolver:  Solving for Ux, Initial residual = 0.0230074, Final residual = 1.21284e-05, No Iterations 2
smoothSolver:  Solving for Uy, Initial residual = 0.0239333, Final residual = 1.28916e-05, No Iterations 2
smoothSolver:  Solving for Uz, Initial residual = 0.0352356, Final residual = 1.754e-05, No Iterations 2
GAMG:  Solving for p, Initial residual = 0.196835, Final residual = 0.0114134, No Iterations 2
GAMG:  Solving for p, Initial residual = 0.0625909, Final residual = 0.00448038, No Iterations 1
GAMG:  Solving for p, Initial residual = 0.0209969, Final residual = 0.00103708, No Iterations 2
GAMG:  Solving for p, Initial residual = 0.016084, Final residual = 0.00116886, No Iterations 1
GAMG:  Solving for p, Initial residual = 0.00665332, Final residual = 0.000314012, No Iterations 2
time step continuity errors : sum local = 0.283577, global = 0.0479877, cumulative = -4.64841
ExecutionTime = 1.69 s  ClockTime = 1 s

Time = 23

smoothSolver:  Solving for Ux, Initial residual = 0.0241184, Final residual = 1.20489e-05, No Iterations 2
smoothSolver:  Solving for Uy, Initial residual = 0.0250357, Final residual = 1.27199e-05, No Iterations 2
smoothSolver:  Solving for Uz, Initial residual = 0.0494801, Final residual = 2.09985e-05, No Iterations 2
GAMG:  Solving for p, Initial residual = 0.125697, Final residual = 0.0120972, No Iterations 1
GAMG:  Solving for p, Initial residual = 0.0418146, Final residual = 0.00206555, No Iterations 2
GAMG:  Solving for p, Initial residual = 0.0265796, Final residual = 0.00194839, No Iterations 1
GAMG:  Solving for p, Initial residual = 0.0105297, Final residual = 0.000500147, No Iterations 2
GAMG:  Solving for p, Initial residual = 0.00833725, Final residual = 0.000628937, No Iterations 1
time step continuity errors : sum local = 0.394837, global = 0.117939, cumulative = -4.53047
ExecutionTime = 1.76 s  ClockTime = 1 s

Time = 24

smoothSolver:  Solving for Ux, Initial residual = 0.0245129, Final residual = 1.18682e-05, No Iterations 2
smoothSolver:  Solving for Uy, Initial residual = 0.0252982, Final residual = 1.23736e-05, No Iterations 2
smoothSolver:  Solving for Uz, Initial residual = 0.0554849, Final residual = 2.20827e-05, No Iterations 2
GAMG:  Solving for p, Initial residual = 0.107818, Final residual = 0.0104256, No Iterations 1
GAMG:  Solving for p, Initial residual = 0.0418725, Final residual = 0.00174425, No Iterations 2
GAMG:  Solving for p, Initial residual = 0.0292616, Final residual = 0.0020864, No Iterations 1
GAMG:  Solving for p, Initial residual = 0.0113327, Final residual = 0.000484272, No Iterations 2
GAMG:  Solving for p, Initial residual = 0.00869056, Final residual = 0.000648147, No Iterations 1
time step continuity errors : sum local = 0.200404, global = -0.0567722, cumulative = -4.58725
ExecutionTime = 1.82 s  ClockTime = 1 s

Time = 25

smoothSolver:  Solving for Ux, Initial residual = 0.0237346, Final residual = 1.1372e-05, No Iterations 2
smoothSolver:  Solving for Uy, Initial residual = 0.0244107, Final residual = 1.16978e-05, No Iterations 2
smoothSolver:  Solving for Uz, Initial residual = 0.0508565, Final residual = 2.03636e-05, No Iterations 2
GAMG:  Solving for p, Initial residual = 0.107742, Final residual = 0.00500383, No Iterations 2
GAMG:  Solving for p, Initial residual = 0.144941, Final residual = 0.0101109, No Iterations 1
GAMG:  Solving for p, Initial residual = 0.0447976, Final residual = 0.00217744, No Iterations 2
GAMG:  Solving for p, Initial residual = 0.0291213, Final residual = 0.00201883, No Iterations 1
GAMG:  Solving for p, Initial residual = 0.0112405, Final residual = 0.00052475, No Iterations 2
time step continuity errors : sum local = 0.144212, global = -0.0250879, cumulative = -4.61233
ExecutionTime = 1.89 s  ClockTime = 1 s

Time = 26

smoothSolver:  Solving for Ux, Initial residual = 0.0220981, Final residual = 1.0653e-05, No Iterations 2
smoothSolver:  Solving for Uy, Initial residual = 0.0226923, Final residual = 1.08398e-05, No Iterations 2
smoothSolver:  Solving for Uz, Initial residual = 0.0380477, Final residual = 1.61529e-05, No Iterations 2
GAMG:  Solving for p, Initial residual = 0.123612, Final residual = 0.00722458, No Iterations 2
GAMG:  Solving for p, Initial residual = 0.0959814, Final residual = 0.00672979, No Iterations 1
GAMG:  Solving for p, Initial residual = 0.0303189, Final residual = 0.00150933, No Iterations 2
GAMG:  Solving for p, Initial residual = 0.0216878, Final residual = 0.00151483, No Iterations 1
GAMG:  Solving for p, Initial residual = 0.00844153, Final residual = 0.000402528, No Iterations 2
time step continuity errors : sum local = 0.191623, global = -0.0335609, cumulative = -4.64589
ExecutionTime = 1.96 s  ClockTime = 1 s

Time = 27

smoothSolver:  Solving for Ux, Initial residual = 0.0203075, Final residual = 9.97012e-06, No Iterations 2
smoothSolver:  Solving for Uy, Initial residual = 0.0208212, Final residual = 1.00224e-05, No Iterations 2
smoothSolver:  Solving for Uz, Initial residual = 0.0252195, Final residual = 1.2083e-05, No Iterations 2
GAMG:  Solving for p, Initial residual = 0.169438, Final residual = 0.0106741, No Iterations 2
GAMG:  Solving for p, Initial residual = 0.0748553, Final residual = 0.0052679, No Iterations 1
GAMG:  Solving for p, Initial residual = 0.0239627, Final residual = 0.0012019, No Iterations 2
GAMG:  Solving for p, Initial residual = 0.0178938, Final residual = 0.0012643, No Iterations 1
GAMG:  Solving for p, Initial residual = 0.00708007, Final residual = 0.000340225, No Iterations 2
time step continuity errors : sum local = 0.195827, global = -0.0341717, cumulative = -4.68007
ExecutionTime = 2.03 s  ClockTime = 2 s

Time = 28

smoothSolver:  Solving for Ux, Initial residual = 0.0189254, Final residual = 9.41556e-06, No Iterations 2
smoothSolver:  Solving for Uy, Initial residual = 0.0192839, Final residual = 9.44039e-06, No Iterations 2
smoothSolver:  Solving for Uz, Initial residual = 0.021104, Final residual = 1.06573e-05, No Iterations 2
GAMG:  Solving for p, Initial residual = 0.196324, Final residual = 0.0112864, No Iterations 2
GAMG:  Solving for p, Initial residual = 0.0577929, Final residual = 0.00409363, No Iterations 1
GAMG:  Solving for p, Initial residual = 0.0190303, Final residual = 0.000962572, No Iterations 2
GAMG:  Solving for p, Initial residual = 0.0147234, Final residual = 0.00105682, No Iterations 1
GAMG:  Solving for p, Initial residual = 0.00595395, Final residual = 0.000287984, No Iterations 2
time step continuity errors : sum local = 0.163556, global = -0.0284153, cumulative = -4.70848
ExecutionTime = 2.1 s  ClockTime = 2 s

Time = 29

smoothSolver:  Solving for Ux, Initial residual = 0.017943, Final residual = 9.07919e-06, No Iterations 2
smoothSolver:  Solving for Uy, Initial residual = 0.0181648, Final residual = 9.02714e-06, No Iterations 2
smoothSolver:  Solving for Uz, Initial residual = 0.0255781, Final residual = 1.17089e-05, No Iterations 2
GAMG:  Solving for p, Initial residual = 0.1209, Final residual = 0.0118327, No Iterations 1
GAMG:  Solving for p, Initial residual = 0.038517, Final residual = 0.0019948, No Iterations 2
GAMG:  Solving for p, Initial residual = 0.0243138, Final residual = 0.00171784, No Iterations 1
GAMG:  Solving for p, Initial residual = 0.0093757, Final residual = 0.000457881, No Iterations 2
GAMG:  Solving for p, Initial residual = 0.00759537, Final residual = 0.00055844, No Iterations 1
time step continuity errors : sum local = 0.266464, global = -0.0897435, cumulative = -4.79823
ExecutionTime = 2.17 s  ClockTime = 2 s

Time = 30

smoothSolver:  Solving for Ux, Initial residual = 0.0171172, Final residual = 8.73628e-06, No Iterations 2
smoothSolver:  Solving for Uy, Initial residual = 0.0172931, Final residual = 8.68357e-06, No Iterations 2
smoothSolver:  Solving for Uz, Initial residual = 0.0298287, Final residual = 1.26287e-05, No Iterations 2
GAMG:  Solving for p, Initial residual = 0.0969252, Final residual = 0.00891566, No Iterations 1
GAMG:  Solving for p, Initial residual = 0.0310614, Final residual = 0.00121755, No Iterations 2
GAMG:  Solving for p, Initial residual = 0.0166104, Final residual = 0.0012733, No Iterations 1
GAMG:  Solving for p, Initial residual = 0.0070597, Final residual = 0.000325981, No Iterations 2
GAMG:  Solving for p, Initial residual = 0.00534227, Final residual = 0.000420963, No Iterations 1
time step continuity errors : sum local = 0.139323, global = -0.0366968, cumulative = -4.83492
ExecutionTime = 2.23 s  ClockTime = 2 s

Time = 31

smoothSolver:  Solving for Ux, Initial residual = 0.0163403, Final residual = 8.32261e-06, No Iterations 2
smoothSolver:  Solving for Uy, Initial residual = 0.0164949, Final residual = 8.38072e-06, No Iterations 2
smoothSolver:  Solving for Uz, Initial residual = 0.0297568, Final residual = 1.22856e-05, No Iterations 2
GAMG:  Solving for p, Initial residual = 0.0900549, Final residual = 0.00789759, No Iterations 1
GAMG:  Solving for p, Initial residual = 0.0358212, Final residual = 0.00166284, No Iterations 2
GAMG:  Solving for p, Initial residual = 0.0301174, Final residual = 0.0020676, No Iterations 1
GAMG:  Solving for p, Initial residual = 0.011291, Final residual = 0.000499362, No Iterations 2
GAMG:  Solving for p, Initial residual = 0.00928396, Final residual = 0.000671067, No Iterations 1
time step continuity errors : sum local = 0.125323, global = 0.03951, cumulative = -4.79541
ExecutionTime = 2.29 s  ClockTime = 2 s

Time = 32

smoothSolver:  Solving for Ux, Initial residual = 0.0156253, Final residual = 7.91239e-06, No Iterations 2
smoothSolver:  Solving for Uy, Initial residual = 0.0158179, Final residual = 8.03452e-06, No Iterations 2
smoothSolver:  Solving for Uz, Initial residual = 0.0258743, Final residual = 1.09081e-05, No Iterations 2
GAMG:  Solving for p, Initial residual = 0.0916481, Final residual = 0.00396556, No Iterations 2
GAMG:  Solving for p, Initial residual = 0.0997782, Final residual = 0.00700989, No Iterations 1
GAMG:  Solving for p, Initial residual = 0.0313784, Final residual = 0.00152409, No Iterations 2
GAMG:  Solving for p, Initial residual = 0.0213865, Final residual = 0.00150698, No Iterations 1
GAMG:  Solving for p, Initial residual = 0.0084528, Final residual = 0.000395185, No Iterations 2
time step continuity errors : sum local = 0.07687, global = 0.0140125, cumulative = -4.7814
ExecutionTime = 2.37 s  ClockTime = 2 s

Time = 33

smoothSolver:  Solving for Ux, Initial residual = 0.0151075, Final residual = 7.51835e-06, No Iterations 2
smoothSolver:  Solving for Uy, Initial residual = 0.0153581, Final residual = 7.75118e-06, No Iterations 2
smoothSolver:  Solving for Uz, Initial residual = 0.0200869, Final residual = 9.19333e-06, No Iterations 2
GAMG:  Solving for p, Initial residual = 0.10156, Final residual = 0.00498422, No Iterations 2
GAMG:  Solving for p, Initial residual = 0.0745034, Final residual = 0.00526624, No Iterations 1
GAMG:  Solving for p, Initial residual = 0.0239693, Final residual = 0.00120105, No Iterations 2
GAMG:  Solving for p, Initial residual = 0.0175175, Final residual = 0.00124264, No Iterations 1
GAMG:  Solving for p, Initial residual = 0.0069818, Final residual = 0.000335312, No Iterations 2
time step continuity errors : sum local = 0.091268, global = 0.0165035, cumulative = -4.7649
ExecutionTime = 2.43 s  ClockTime = 2 s

Time = 34

smoothSolver:  Solving for Ux, Initial residual = 0.014865, Final residual = 7.17564e-06, No Iterations 2
smoothSolver:  Solving for Uy, Initial residual = 0.0151855, Final residual = 7.45051e-06, No Iterations 2
smoothSolver:  Solving for Uz, Initial residual = 0.0158276, Final residual = 7.85577e-06, No Iterations 2
GAMG:  Solving for p, Initial residual = 0.122683, Final residual = 0.005933, No Iterations 2
GAMG:  Solving for p, Initial residual = 0.059534, Final residual = 0.00423504, No Iterations 1
GAMG:  Solving for p, Initial residual = 0.0196324, Final residual = 0.000999675, No Iterations 2
GAMG:  Solving for p, Initial residual = 0.0149298, Final residual = 0.00107345, No Iterations 1
GAMG:  Solving for p, Initial residual = 0.00604923, Final residual = 0.000294202, No Iterations 2
time step continuity errors : sum local = 0.0878684, global = 0.0157445, cumulative = -4.74915
ExecutionTime = 2.5 s  ClockTime = 2 s

Time = 35

smoothSolver:  Solving for Ux, Initial residual = 0.0148609, Final residual = 7.002e-06, No Iterations 2
smoothSolver:  Solving for Uy, Initial residual = 0.0152003, Final residual = 7.2693e-06, No Iterations 2
smoothSolver:  Solving for Uz, Initial residual = 0.0148262, Final residual = 7.34988e-06, No Iterations 2
GAMG:  Solving for p, Initial residual = 0.158406, Final residual = 0.015065, No Iterations 1
GAMG:  Solving for p, Initial residual = 0.0452474, Final residual = 0.00234501, No Iterations 2
GAMG:  Solving for p, Initial residual = 0.0264096, Final residual = 0.0018687, No Iterations 1
GAMG:  Solving for p, Initial residual = 0.0101491, Final residual = 0.000497151, No Iterations 2
GAMG:  Solving for p, Initial residual = 0.00814462, Final residual = 0.000599448, No Iterations 1
time step continuity errors : sum local = 0.168378, global = 0.0595744, cumulative = -4.68958
ExecutionTime = 2.57 s  ClockTime = 2 s

Time = 36

smoothSolver:  Solving for Ux, Initial residual = 0.0148918, Final residual = 6.85407e-06, No Iterations 2
smoothSolver:  Solving for Uy, Initial residual = 0.0152013, Final residual = 7.14475e-06, No Iterations 2
smoothSolver:  Solving for Uz, Initial residual = 0.0153758, Final residual = 7.34685e-06, No Iterations 2
GAMG:  Solving for p, Initial residual = 0.13127, Final residual = 0.0108331, No Iterations 1
GAMG:  Solving for p, Initial residual = 0.036951, Final residual = 0.00174975, No Iterations 2
GAMG:  Solving for p, Initial residual = 0.021879, Final residual = 0.00159283, No Iterations 1
GAMG:  Solving for p, Initial residual = 0.0086339, Final residual = 0.000420616, No Iterations 2
GAMG:  Solving for p, Initial residual = 0.00689588, Final residual = 0.000521893, No Iterations 1
time step continuity errors : sum local = 0.117771, global = 0.0399364, cumulative = -4.64964
ExecutionTime = 2.63 s  ClockTime = 2 s

Time = 37

smoothSolver:  Solving for Ux, Initial residual = 0.0148051, Final residual = 6.72014e-06, No Iterations 2
smoothSolver:  Solving for Uy, Initial residual = 0.0150433, Final residual = 6.9871e-06, No Iterations 2
smoothSolver:  Solving for Uz, Initial residual = 0.0156917, Final residual = 7.30603e-06, No Iterations 2
GAMG:  Solving for p, Initial residual = 0.116011, Final residual = 0.00961587, No Iterations 1
GAMG:  Solving for p, Initial residual = 0.034699, Final residual = 0.00114638, No Iterations 2
GAMG:  Solving for p, Initial residual = 0.0167749, Final residual = 0.00128684, No Iterations 1
GAMG:  Solving for p, Initial residual = 0.00715192, Final residual = 0.000284276, No Iterations 2
GAMG:  Solving for p, Initial residual = 0.00480343, Final residual = 0.000389606, No Iterations 1
time step continuity errors : sum local = 0.0623546, global = 0.00469918, cumulative = -4.64494
ExecutionTime = 2.71 s  ClockTime = 2 s

Time = 38

smoothSolver:  Solving for Ux, Initial residual = 0.0145808, Final residual = 6.58306e-06, No Iterations 2
smoothSolver:  Solving for Uy, Initial residual = 0.0147235, Final residual = 6.74979e-06, No Iterations 2
smoothSolver:  Solving for Uz, Initial residual = 0.0152019, Final residual = 7.06682e-06, No Iterations 2
GAMG:  Solving for p, Initial residual = 0.112793, Final residual = 0.00911052, No Iterations 1
GAMG:  Solving for p, Initial residual = 0.0396185, Final residual = 0.00179893, No Iterations 2
GAMG:  Solving for p, Initial residual = 0.0263158, Final residual = 0.00179661, No Iterations 1
GAMG:  Solving for p, Initial residual = 0.0094914, Final residual = 0.000433695, No Iterations 2
GAMG:  Solving for p, Initial residual = 0.00702669, Final residual = 0.000506723, No Iterations 1
time step continuity errors : sum local = 0.0759814, global = -0.0247463, cumulative = -4.66969
ExecutionTime = 2.77 s  ClockTime = 2 s

Time = 39

smoothSolver:  Solving for Ux, Initial residual = 0.0142126, Final residual = 6.40992e-06, No Iterations 2
smoothSolver:  Solving for Uy, Initial residual = 0.0142764, Final residual = 6.49533e-06, No Iterations 2
smoothSolver:  Solving for Uz, Initial residual = 0.0141517, Final residual = 6.65313e-06, No Iterations 2
GAMG:  Solving for p, Initial residual = 0.117945, Final residual = 0.0101389, No Iterations 1
GAMG:  Solving for p, Initial residual = 0.043997, Final residual = 0.00221716, No Iterations 2
GAMG:  Solving for p, Initial residual = 0.024383, Final residual = 0.00166497, No Iterations 1
GAMG:  Solving for p, Initial residual = 0.00880094, Final residual = 0.00042348, No Iterations 2
GAMG:  Solving for p, Initial residual = 0.00696879, Final residual = 0.000498551, No Iterations 1
time step continuity errors : sum local = 0.0996194, global = -0.0355818, cumulative = -4.70527
ExecutionTime = 2.84 s  ClockTime = 2 s

Time = 40

smoothSolver:  Solving for Ux, Initial residual = 0.0137822, Final residual = 6.23816e-06, No Iterations 2
smoothSolver:  Solving for Uy, Initial residual = 0.0138047, Final residual = 6.25363e-06, No Iterations 2
smoothSolver:  Solving for Uz, Initial residual = 0.0131187, Final residual = 6.22057e-06, No Iterations 2
GAMG:  Solving for p, Initial residual = 0.130035, Final residual = 0.0114903, No Iterations 1
GAMG:  Solving for p, Initial residual = 0.0369945, Final residual = 0.00190307, No Iterations 2
GAMG:  Solving for p, Initial residual = 0.0217452, Final residual = 0.00149591, No Iterations 1
GAMG:  Solving for p, Initial residual = 0.00801702, Final residual = 0.00039441, No Iterations 2
GAMG:  Solving for p, Initial residual = 0.0064915, Final residual = 0.000467579, No Iterations 1
time step continuity errors : sum local = 0.107458, global = -0.0395168, cumulative = -4.74479
ExecutionTime = 2.91 s  ClockTime = 2 s

Time = 41

smoothSolver:  Solving for Ux, Initial residual = 0.0133519, Final residual = 6.04928e-06, No Iterations 2
smoothSolver:  Solving for Uy, Initial residual = 0.0133666, Final residual = 6.05171e-06, No Iterations 2
smoothSolver:  Solving for Uz, Initial residual = 0.0125484, Final residual = 5.92753e-06, No Iterations 2
GAMG:  Solving for p, Initial residual = 0.114313, Final residual = 0.00946852, No Iterations 1
GAMG:  Solving for p, Initial residual = 0.0304637, Final residual = 0.00156348, No Iterations 2
GAMG:  Solving for p, Initial residual = 0.0188225, Final residual = 0.00131337, No Iterations 1
GAMG:  Solving for p, Initial residual = 0.00705831, Final residual = 0.000352667, No Iterations 2
GAMG:  Solving for p, Initial residual = 0.00578412, Final residual = 0.000422159, No Iterations 1
time step continuity errors : sum local = 0.0999603, global = -0.0372555, cumulative = -4.78204
ExecutionTime = 2.97 s  ClockTime = 2 s

Time = 42

smoothSolver:  Solving for Ux, Initial residual = 0.0129768, Final residual = 5.88627e-06, No Iterations 2
smoothSolver:  Solving for Uy, Initial residual = 0.0129785, Final residual = 5.85961e-06, No Iterations 2
smoothSolver:  Solving for Uz, Initial residual = 0.0124263, Final residual = 5.78245e-06, No Iterations 2
GAMG:  Solving for p, Initial residual = 0.0962439, Final residual = 0.00721596, No Iterations 1
GAMG:  Solving for p, Initial residual = 0.0253043, Final residual = 0.00124006, No Iterations 2
GAMG:  Solving for p, Initial residual = 0.0157494, Final residual = 0.00112564, No Iterations 1
GAMG:  Solving for p, Initial residual = 0.00604132, Final residual = 0.000304889, No Iterations 2
GAMG:  Solving for p, Initial residual = 0.00497708, Final residual = 0.000370425, No Iterations 1
time step continuity errors : sum local = 0.0819551, global = -0.0303841, cumulative = -4.81243
ExecutionTime = 3.04 s  ClockTime = 3 s

Time = 43

smoothSolver:  Solving for Ux, Initial residual = 0.012651, Final residual = 5.70861e-06, No Iterations 2
smoothSolver:  Solving for Uy, Initial residual = 0.0126282, Final residual = 5.66067e-06, No Iterations 2
smoothSolver:  Solving for Uz, Initial residual = 0.0124389, Final residual = 5.68406e-06, No Iterations 2
GAMG:  Solving for p, Initial residual = 0.0863058, Final residual = 0.00626713, No Iterations 1
GAMG:  Solving for p, Initial residual = 0.0227574, Final residual = 0.00227526, No Iterations 1
GAMG:  Solving for p, Initial residual = 0.0101286, Final residual = 0.000491416, No Iterations 2
GAMG:  Solving for p, Initial residual = 0.00705811, Final residual = 0.000534498, No Iterations 1
GAMG:  Solving for p, Initial residual = 0.00304429, Final residual = 0.000153638, No Iterations 2
time step continuity errors : sum local = 0.0295911, global = -0.00537735, cumulative = -4.8178
ExecutionTime = 3.11 s  ClockTime = 3 s

Time = 44

smoothSolver:  Solving for Ux, Initial residual = 0.0123457, Final residual = 5.55375e-06, No Iterations 2
smoothSolver:  Solving for Uy, Initial residual = 0.0123165, Final residual = 5.52217e-06, No Iterations 2
smoothSolver:  Solving for Uz, Initial residual = 0.0122944, Final residual = 5.5681e-06, No Iterations 2
GAMG:  Solving for p, Initial residual = 0.0820326, Final residual = 0.0057564, No Iterations 1
GAMG:  Solving for p, Initial residual = 0.0220646, Final residual = 0.00204676, No Iterations 1
GAMG:  Solving for p, Initial residual = 0.00898587, Final residual = 0.000365685, No Iterations 2
GAMG:  Solving for p, Initial residual = 0.00578026, Final residual = 0.000428685, No Iterations 1
GAMG:  Solving for p, Initial residual = 0.00256175, Final residual = 0.00010563, No Iterations 2
time step continuity errors : sum local = 0.0176531, global = 0.00296773, cumulative = -4.81484
ExecutionTime = 3.18 s  ClockTime = 3 s

Time = 45

smoothSolver:  Solving for Ux, Initial residual = 0.0120638, Final residual = 5.41274e-06, No Iterations 2
smoothSolver:  Solving for Uy, Initial residual = 0.0120497, Final residual = 5.40281e-06, No Iterations 2
smoothSolver:  Solving for Uz, Initial residual = 0.0119087, Final residual = 5.37183e-06, No Iterations 2
GAMG:  Solving for p, Initial residual = 0.0802773, Final residual = 0.00549507, No Iterations 1
GAMG:  Solving for p, Initial residual = 0.0225939, Final residual = 0.00217886, No Iterations 1
GAMG:  Solving for p, Initial residual = 0.0113939, Final residual = 0.00053977, No Iterations 2
GAMG:  Solving for p, Initial residual = 0.00924924, Final residual = 0.000637, No Iterations 1
GAMG:  Solving for p, Initial residual = 0.00373795, Final residual = 0.00016848, No Iterations 2
time step continuity errors : sum local = 0.0239279, global = 0.0045971, cumulative = -4.81024
ExecutionTime = 3.24 s  ClockTime = 3 s

Time = 46

smoothSolver:  Solving for Ux, Initial residual = 0.0118246, Final residual = 5.26753e-06, No Iterations 2
smoothSolver:  Solving for Uy, Initial residual = 0.0118347, Final residual = 5.31708e-06, No Iterations 2
smoothSolver:  Solving for Uz, Initial residual = 0.0113948, Final residual = 5.15041e-06, No Iterations 2
GAMG:  Solving for p, Initial residual = 0.0810651, Final residual = 0.00553149, No Iterations 1
GAMG:  Solving for p, Initial residual = 0.0242073, Final residual = 0.00112231, No Iterations 2
GAMG:  Solving for p, Initial residual = 0.0199655, Final residual = 0.00138003, No Iterations 1
GAMG:  Solving for p, Initial residual = 0.00761614, Final residual = 0.000356171, No Iterations 2
GAMG:  Solving for p, Initial residual = 0.00622834, Final residual = 0.000449851, No Iterations 1
time step continuity errors : sum local = 0.0575775, global = 0.0194785, cumulative = -4.79076
ExecutionTime = 3.31 s  ClockTime = 3 s

Time = 47

smoothSolver:  Solving for Ux, Initial residual = 0.0116411, Final residual = 5.17038e-06, No Iterations 2
smoothSolver:  Solving for Uy, Initial residual = 0.0116652, Final residual = 5.2204e-06, No Iterations 2
smoothSolver:  Solving for Uz, Initial residual = 0.0109259, Final residual = 4.94926e-06, No Iterations 2
GAMG:  Solving for p, Initial residual = 0.0834992, Final residual = 0.00566333, No Iterations 1
GAMG:  Solving for p, Initial residual = 0.0251843, Final residual = 0.00119002, No Iterations 2
GAMG:  Solving for p, Initial residual = 0.0199273, Final residual = 0.00139059, No Iterations 1
GAMG:  Solving for p, Initial residual = 0.00753383, Final residual = 0.000358454, No Iterations 2
GAMG:  Solving for p, Initial residual = 0.00601798, Final residual = 0.000439601, No Iterations 1
time step continuity errors : sum local = 0.060408, global = 0.0209252, cumulative = -4.76983
ExecutionTime = 3.38 s  ClockTime = 3 s

Time = 48

smoothSolver:  Solving for Ux, Initial residual = 0.0115183, Final residual = 5.09216e-06, No Iterations 2
smoothSolver:  Solving for Uy, Initial residual = 0.0115309, Final residual = 5.12304e-06, No Iterations 2
smoothSolver:  Solving for Uz, Initial residual = 0.0105963, Final residual = 4.7828e-06, No Iterations 2
GAMG:  Solving for p, Initial residual = 0.0869294, Final residual = 0.00575244, No Iterations 1
GAMG:  Solving for p, Initial residual = 0.0247465, Final residual = 0.00111709, No Iterations 2
GAMG:  Solving for p, Initial residual = 0.0177332, Final residual = 0.00125767, No Iterations 1
GAMG:  Solving for p, Initial residual = 0.00683709, Final residual = 0.000327333, No Iterations 2
GAMG:  Solving for p, Initial residual = 0.00546973, Final residual = 0.000406235, No Iterations 1
time step continuity errors : sum local = 0.0560925, global = 0.019229, cumulative = -4.75061
ExecutionTime = 3.44 s  ClockTime = 3 s

Time = 49

smoothSolver:  Solving for Ux, Initial residual = 0.0114036, Final residual = 5.03327e-06, No Iterations 2
smoothSolver:  Solving for Uy, Initial residual = 0.0114162, Final residual = 5.05175e-06, No Iterations 2
smoothSolver:  Solving for Uz, Initial residual = 0.0103886, Final residual = 4.64666e-06, No Iterations 2
GAMG:  Solving for p, Initial residual = 0.089961, Final residual = 0.00584121, No Iterations 1
GAMG:  Solving for p, Initial residual = 0.0239653, Final residual = 0.00234361, No Iterations 1
GAMG:  Solving for p, Initial residual = 0.0119477, Final residual = 0.000561004, No Iterations 2
GAMG:  Solving for p, Initial residual = 0.00887629, Final residual = 0.000651391, No Iterations 1
GAMG:  Solving for p, Initial residual = 0.00375625, Final residual = 0.000179232, No Iterations 2
time step continuity errors : sum local = 0.023285, global = 0.00428801, cumulative = -4.74632
ExecutionTime = 3.52 s  ClockTime = 3 s

Time = 50

smoothSolver:  Solving for Ux, Initial residual = 0.0112741, Final residual = 4.94213e-06, No Iterations 2
smoothSolver:  Solving for Uy, Initial residual = 0.0112846, Final residual = 4.96427e-06, No Iterations 2
smoothSolver:  Solving for Uz, Initial residual = 0.0102243, Final residual = 4.50406e-06, No Iterations 2
GAMG:  Solving for p, Initial residual = 0.0915055, Final residual = 0.00584976, No Iterations 1
GAMG:  Solving for p, Initial residual = 0.0236013, Final residual = 0.00215956, No Iterations 1
GAMG:  Solving for p, Initial residual = 0.00954594, Final residual = 0.000411895, No Iterations 2
GAMG:  Solving for p, Initial residual = 0.00643152, Final residual = 0.000492535, No Iterations 1
GAMG:  Solving for p, Initial residual = 0.00287694, Final residual = 0.000131115, No Iterations 2
time step continuity errors : sum local = 0.0169243, global = 0.0029777, cumulative = -4.74334
ExecutionTime = 3.58 s  ClockTime = 3 s

Time = 51

smoothSolver:  Solving for Ux, Initial residual = 0.0111316, Final residual = 4.88243e-06, No Iterations 2
smoothSolver:  Solving for Uy, Initial residual = 0.0111252, Final residual = 4.87686e-06, No Iterations 2
smoothSolver:  Solving for Uz, Initial residual = 0.0100617, Final residual = 4.38424e-06, No Iterations 2
GAMG:  Solving for p, Initial residual = 0.0908187, Final residual = 0.0057091, No Iterations 1
GAMG:  Solving for p, Initial residual = 0.0230499, Final residual = 0.00204421, No Iterations 1
GAMG:  Solving for p, Initial residual = 0.00893223, Final residual = 0.000336509, No Iterations 2
GAMG:  Solving for p, Initial residual = 0.00508599, Final residual = 0.000388101, No Iterations 1
GAMG:  Solving for p, Initial residual = 0.00233233, Final residual = 9.11932e-05, No Iterations 2
time step continuity errors : sum local = 0.0125853, global = -0.00294737, cumulative = -4.74629
ExecutionTime = 3.64 s  ClockTime = 3 s

Time = 52

smoothSolver:  Solving for Ux, Initial residual = 0.0109848, Final residual = 4.82148e-06, No Iterations 2
smoothSolver:  Solving for Uy, Initial residual = 0.0109507, Final residual = 4.80439e-06, No Iterations 2
smoothSolver:  Solving for Uz, Initial residual = 0.00988357, Final residual = 4.25061e-06, No Iterations 2
GAMG:  Solving for p, Initial residual = 0.088468, Final residual = 0.00549449, No Iterations 1
GAMG:  Solving for p, Initial residual = 0.0221282, Final residual = 0.00195297, No Iterations 1
GAMG:  Solving for p, Initial residual = 0.00883608, Final residual = 0.000408003, No Iterations 2
GAMG:  Solving for p, Initial residual = 0.00585323, Final residual = 0.000421632, No Iterations 1
GAMG:  Solving for p, Initial residual = 0.00245638, Final residual = 0.000114286, No Iterations 2
time step continuity errors : sum local = 0.0169486, global = -0.00328724, cumulative = -4.74957
ExecutionTime = 3.72 s  ClockTime = 3 s

Time = 53

smoothSolver:  Solving for Ux, Initial residual = 0.0108116, Final residual = 4.77001e-06, No Iterations 2
smoothSolver:  Solving for Uy, Initial residual = 0.0107616, Final residual = 4.73603e-06, No Iterations 2
smoothSolver:  Solving for Uz, Initial residual = 0.00970395, Final residual = 4.14307e-06, No Iterations 2
GAMG:  Solving for p, Initial residual = 0.084961, Final residual = 0.00524765, No Iterations 1
GAMG:  Solving for p, Initial residual = 0.0211357, Final residual = 0.00194889, No Iterations 1
GAMG:  Solving for p, Initial residual = 0.00888421, Final residual = 0.000432935, No Iterations 2
GAMG:  Solving for p, Initial residual = 0.00620281, Final residual = 0.000449355, No Iterations 1
GAMG:  Solving for p, Initial residual = 0.0025645, Final residual = 0.000123964, No Iterations 2
time step continuity errors : sum local = 0.0193669, global = -0.00367597, cumulative = -4.75325
ExecutionTime = 3.78 s  ClockTime = 3 s

Time = 54

smoothSolver:  Solving for Ux, Initial residual = 0.0106164, Final residual = 4.6774e-06, No Iterations 2
smoothSolver:  Solving for Uy, Initial residual = 0.0105614, Final residual = 4.66014e-06, No Iterations 2
smoothSolver:  Solving for Uz, Initial residual = 0.009533, Final residual = 4.03754e-06, No Iterations 2
GAMG:  Solving for p, Initial residual = 0.0813506, Final residual = 0.00501742, No Iterations 1
GAMG:  Solving for p, Initial residual = 0.0202123, Final residual = 0.00189993, No Iterations 1
GAMG:  Solving for p, Initial residual = 0.00862285, Final residual = 0.000426773, No Iterations 2
GAMG:  Solving for p, Initial residual = 0.00609819, Final residual = 0.000449146, No Iterations 1
GAMG:  Solving for p, Initial residual = 0.00253804, Final residual = 0.000125615, No Iterations 2
time step continuity errors : sum local = 0.0200916, global = -0.00378427, cumulative = -4.75704
ExecutionTime = 3.85 s  ClockTime = 3 s

Time = 55

smoothSolver:  Solving for Ux, Initial residual = 0.0104264, Final residual = 4.63008e-06, No Iterations 2
smoothSolver:  Solving for Uy, Initial residual = 0.0103698, Final residual = 4.61503e-06, No Iterations 2
smoothSolver:  Solving for Uz, Initial residual = 0.00937766, Final residual = 3.94884e-06, No Iterations 2
GAMG:  Solving for p, Initial residual = 0.0780666, Final residual = 0.00478302, No Iterations 1
GAMG:  Solving for p, Initial residual = 0.0193977, Final residual = 0.00179742, No Iterations 1
GAMG:  Solving for p, Initial residual = 0.00803307, Final residual = 0.000390573, No Iterations 2
GAMG:  Solving for p, Initial residual = 0.00557922, Final residual = 0.000418854, No Iterations 1
GAMG:  Solving for p, Initial residual = 0.0023621, Final residual = 0.000117333, No Iterations 2
time step continuity errors : sum local = 0.018785, global = -0.0035261, cumulative = -4.76056
ExecutionTime = 3.92 s  ClockTime = 3 s

Time = 56

smoothSolver:  Solving for Ux, Initial residual = 0.0102446, Final residual = 4.52731e-06, No Iterations 2
smoothSolver:  Solving for Uy, Initial residual = 0.0101858, Final residual = 4.54987e-06, No Iterations 2
smoothSolver:  Solving for Uz, Initial residual = 0.00922078, Final residual = 3.85304e-06, No Iterations 2
GAMG:  Solving for p, Initial residual = 0.0754577, Final residual = 0.00456991, No Iterations 1
GAMG:  Solving for p, Initial residual = 0.0186973, Final residual = 0.00168648, No Iterations 1
GAMG:  Solving for p, Initial residual = 0.00738258, Final residual = 0.000336448, No Iterations 2
GAMG:  Solving for p, Initial residual = 0.00476247, Final residual = 0.000369528, No Iterations 1
GAMG:  Solving for p, Initial residual = 0.00209523, Final residual = 0.00010307, No Iterations 2
time step continuity errors : sum local = 0.0162172, global = -0.00307393, cumulative = -4.76364
ExecutionTime = 3.98 s  ClockTime = 4 s

Time = 57

smoothSolver:  Solving for Ux, Initial residual = 0.010074, Final residual = 4.43656e-06, No Iterations 2
smoothSolver:  Solving for Uy, Initial residual = 0.0100196, Final residual = 4.4647e-06, No Iterations 2
smoothSolver:  Solving for Uz, Initial residual = 0.00906496, Final residual = 3.76699e-06, No Iterations 2
GAMG:  Solving for p, Initial residual = 0.0732673, Final residual = 0.00436336, No Iterations 1
GAMG:  Solving for p, Initial residual = 0.0181852, Final residual = 0.00157677, No Iterations 1
GAMG:  Solving for p, Initial residual = 0.00698765, Final residual = 0.000265805, No Iterations 2
GAMG:  Solving for p, Initial residual = 0.00390985, Final residual = 0.000308318, No Iterations 1
GAMG:  Solving for p, Initial residual = 0.00181579, Final residual = 8.21377e-05, No Iterations 2
time step continuity errors : sum local = 0.0125992, global = -0.00259333, cumulative = -4.76623
ExecutionTime = 4.05 s  ClockTime = 4 s

Time = 58

smoothSolver:  Solving for Ux, Initial residual = 0.00992038, Final residual = 4.32037e-06, No Iterations 2
smoothSolver:  Solving for Uy, Initial residual = 0.00986907, Final residual = 4.37355e-06, No Iterations 2
smoothSolver:  Solving for Uz, Initial residual = 0.00890154, Final residual = 3.68181e-06, No Iterations 2
GAMG:  Solving for p, Initial residual = 0.0719571, Final residual = 0.00422483, No Iterations 1
GAMG:  Solving for p, Initial residual = 0.0178414, Final residual = 0.0014927, No Iterations 1
GAMG:  Solving for p, Initial residual = 0.00683588, Final residual = 0.000678079, No Iterations 1
GAMG:  Solving for p, Initial residual = 0.00332493, Final residual = 0.000125548, No Iterations 2
GAMG:  Solving for p, Initial residual = 0.00212869, Final residual = 0.000164368, No Iterations 1
time step continuity errors : sum local = 0.0246175, global = 0.00241645, cumulative = -4.76381
ExecutionTime = 4.12 s  ClockTime = 4 s

Time = 59

smoothSolver:  Solving for Ux, Initial residual = 0.0097864, Final residual = 4.2714e-06, No Iterations 2
smoothSolver:  Solving for Uy, Initial residual = 0.00973249, Final residual = 4.28494e-06, No Iterations 2
smoothSolver:  Solving for Uz, Initial residual = 0.00873079, Final residual = 3.59357e-06, No Iterations 2
GAMG:  Solving for p, Initial residual = 0.0710285, Final residual = 0.00414801, No Iterations 1
GAMG:  Solving for p, Initial residual = 0.0176739, Final residual = 0.00146778, No Iterations 1
GAMG:  Solving for p, Initial residual = 0.00685083, Final residual = 0.000677274, No Iterations 1
GAMG:  Solving for p, Initial residual = 0.00347376, Final residual = 0.000161493, No Iterations 2
GAMG:  Solving for p, Initial residual = 0.00255017, Final residual = 0.000188632, No Iterations 1
time step continuity errors : sum local = 0.0275104, global = 0.00724559, cumulative = -4.75657
ExecutionTime = 4.18 s  ClockTime = 4 s

Time = 60

smoothSolver:  Solving for Ux, Initial residual = 0.00965722, Final residual = 4.2193e-06, No Iterations 2
smoothSolver:  Solving for Uy, Initial residual = 0.00960362, Final residual = 4.22767e-06, No Iterations 2
smoothSolver:  Solving for Uz, Initial residual = 0.00855419, Final residual = 3.5065e-06, No Iterations 2
GAMG:  Solving for p, Initial residual = 0.0705211, Final residual = 0.00411549, No Iterations 1
GAMG:  Solving for p, Initial residual = 0.0176575, Final residual = 0.00148638, No Iterations 1
GAMG:  Solving for p, Initial residual = 0.0069369, Final residual = 0.000293423, No Iterations 2
GAMG:  Solving for p, Initial residual = 0.00454884, Final residual = 0.000335361, No Iterations 1
GAMG:  Solving for p, Initial residual = 0.00198136, Final residual = 9.30592e-05, No Iterations 2
time step continuity errors : sum local = 0.0133426, global = 0.00257036, cumulative = -4.754
ExecutionTime = 4.25 s  ClockTime = 4 s

Time = 61

smoothSolver:  Solving for Ux, Initial residual = 0.00954021, Final residual = 4.17163e-06, No Iterations 2
smoothSolver:  Solving for Uy, Initial residual = 0.00948729, Final residual = 4.17794e-06, No Iterations 2
smoothSolver:  Solving for Uz, Initial residual = 0.00838257, Final residual = 3.42139e-06, No Iterations 2
GAMG:  Solving for p, Initial residual = 0.0705011, Final residual = 0.00410708, No Iterations 1
GAMG:  Solving for p, Initial residual = 0.0176317, Final residual = 0.0015044, No Iterations 1
GAMG:  Solving for p, Initial residual = 0.00691993, Final residual = 0.000298033, No Iterations 2
GAMG:  Solving for p, Initial residual = 0.00456998, Final residual = 0.000342691, No Iterations 1
GAMG:  Solving for p, Initial residual = 0.00199659, Final residual = 9.49107e-05, No Iterations 2
time step continuity errors : sum local = 0.0134653, global = 0.00253221, cumulative = -4.75146
ExecutionTime = 4.31 s  ClockTime = 4 s

Time = 62

smoothSolver:  Solving for Ux, Initial residual = 0.00942621, Final residual = 4.13131e-06, No Iterations 2
smoothSolver:  Solving for Uy, Initial residual = 0.00938048, Final residual = 4.11225e-06, No Iterations 2
smoothSolver:  Solving for Uz, Initial residual = 0.00822483, Final residual = 3.36262e-06, No Iterations 2
GAMG:  Solving for p, Initial residual = 0.0704879, Final residual = 0.00409057, No Iterations 1
GAMG:  Solving for p, Initial residual = 0.0175984, Final residual = 0.00150174, No Iterations 1
GAMG:  Solving for p, Initial residual = 0.00677146, Final residual = 0.000281355, No Iterations 2
GAMG:  Solving for p, Initial residual = 0.00424095, Final residual = 0.000323947, No Iterations 1
GAMG:  Solving for p, Initial residual = 0.00189323, Final residual = 8.89155e-05, No Iterations 2
time step continuity errors : sum local = 0.0126318, global = 0.00234299, cumulative = -4.74912
ExecutionTime = 4.37 s  ClockTime = 4 s

Time = 63

smoothSolver:  Solving for Ux, Initial residual = 0.00931163, Final residual = 4.10149e-06, No Iterations 2
smoothSolver:  Solving for Uy, Initial residual = 0.00927406, Final residual = 4.05471e-06, No Iterations 2
smoothSolver:  Solving for Uz, Initial residual = 0.00807682, Final residual = 3.31086e-06, No Iterations 2
GAMG:  Solving for p, Initial residual = 0.0704531, Final residual = 0.00408794, No Iterations 1
GAMG:  Solving for p, Initial residual = 0.017509, Final residual = 0.00148139, No Iterations 1
GAMG:  Solving for p, Initial residual = 0.00659102, Final residual = 0.000249833, No Iterations 2
GAMG:  Solving for p, Initial residual = 0.00375655, Final residual = 0.000290845, No Iterations 1
GAMG:  Solving for p, Initial residual = 0.0017218, Final residual = 7.67419e-05, No Iterations 2
time step continuity errors : sum local = 0.0110073, global = 0.00203163, cumulative = -4.74709
ExecutionTime = 4.45 s  ClockTime = 4 s

Time = 64

smoothSolver:  Solving for Ux, Initial residual = 0.00920484, Final residual = 4.05728e-06, No Iterations 2
smoothSolver:  Solving for Uy, Initial residual = 0.00916775, Final residual = 3.97263e-06, No Iterations 2
smoothSolver:  Solving for Uz, Initial residual = 0.00793582, Final residual = 3.23694e-06, No Iterations 2
GAMG:  Solving for p, Initial residual = 0.0703058, Final residual = 0.00407777, No Iterations 1
GAMG:  Solving for p, Initial residual = 0.0173363, Final residual = 0.00144456, No Iterations 1
GAMG:  Solving for p, Initial residual = 0.00641853, Final residual = 0.000222948, No Iterations 2
GAMG:  Solving for p, Initial residual = 0.00336742, Final residual = 0.000261073, No Iterations 1
GAMG:  Solving for p, Initial residual = 0.00157637, Final residual = 5.98277e-05, No Iterations 2
time step continuity errors : sum local = 0.0086793, global = 0.00138505, cumulative = -4.7457
ExecutionTime = 4.51 s  ClockTime = 4 s

Time = 65

smoothSolver:  Solving for Ux, Initial residual = 0.00909259, Final residual = 4.00743e-06, No Iterations 2
smoothSolver:  Solving for Uy, Initial residual = 0.00905439, Final residual = 3.92686e-06, No Iterations 2
smoothSolver:  Solving for Uz, Initial residual = 0.0077938, Final residual = 3.19795e-06, No Iterations 2
GAMG:  Solving for p, Initial residual = 0.0694966, Final residual = 0.00405433, No Iterations 1
GAMG:  Solving for p, Initial residual = 0.0170728, Final residual = 0.001414, No Iterations 1
GAMG:  Solving for p, Initial residual = 0.006269, Final residual = 0.000211386, No Iterations 2
GAMG:  Solving for p, Initial residual = 0.00323505, Final residual = 0.000241343, No Iterations 1
GAMG:  Solving for p, Initial residual = 0.00150465, Final residual = 5.36775e-05, No Iterations 2
time step continuity errors : sum local = 0.00787411, global = -0.00208591, cumulative = -4.74779
ExecutionTime = 4.58 s  ClockTime = 4 s

Time = 66

smoothSolver:  Solving for Ux, Initial residual = 0.00897007, Final residual = 3.97053e-06, No Iterations 2
smoothSolver:  Solving for Uy, Initial residual = 0.00893721, Final residual = 3.89222e-06, No Iterations 2
smoothSolver:  Solving for Uz, Initial residual = 0.00764715, Final residual = 3.13273e-06, No Iterations 2
GAMG:  Solving for p, Initial residual = 0.0685379, Final residual = 0.00402226, No Iterations 1
GAMG:  Solving for p, Initial residual = 0.0167639, Final residual = 0.00139044, No Iterations 1
GAMG:  Solving for p, Initial residual = 0.0061273, Final residual = 0.000221773, No Iterations 2
GAMG:  Solving for p, Initial residual = 0.00327179, Final residual = 0.0002431, No Iterations 1
GAMG:  Solving for p, Initial residual = 0.00149191, Final residual = 6.3984e-05, No Iterations 2
time step continuity errors : sum local = 0.00952797, global = -0.00234191, cumulative = -4.75013
ExecutionTime = 4.65 s  ClockTime = 4 s

Time = 67

smoothSolver:  Solving for Ux, Initial residual = 0.00885253, Final residual = 3.93223e-06, No Iterations 2
smoothSolver:  Solving for Uy, Initial residual = 0.008828, Final residual = 3.86399e-06, No Iterations 2
smoothSolver:  Solving for Uz, Initial residual = 0.00750206, Final residual = 3.08562e-06, No Iterations 2
GAMG:  Solving for p, Initial residual = 0.0673436, Final residual = 0.00394324, No Iterations 1
GAMG:  Solving for p, Initial residual = 0.0164057, Final residual = 0.00137007, No Iterations 1
GAMG:  Solving for p, Initial residual = 0.00600199, Final residual = 0.000233386, No Iterations 2
GAMG:  Solving for p, Initial residual = 0.00332248, Final residual = 0.000249596, No Iterations 1
GAMG:  Solving for p, Initial residual = 0.00149655, Final residual = 6.85724e-05, No Iterations 2
time step continuity errors : sum local = 0.0103284, global = -0.00225699, cumulative = -4.75239
ExecutionTime = 4.72 s  ClockTime = 4 s

Time = 68

smoothSolver:  Solving for Ux, Initial residual = 0.00873724, Final residual = 3.88644e-06, No Iterations 2
smoothSolver:  Solving for Uy, Initial residual = 0.00872098, Final residual = 3.8314e-06, No Iterations 2
smoothSolver:  Solving for Uz, Initial residual = 0.00735656, Final residual = 3.02493e-06, No Iterations 2
GAMG:  Solving for p, Initial residual = 0.0659778, Final residual = 0.00385035, No Iterations 1
GAMG:  Solving for p, Initial residual = 0.0160242, Final residual = 0.00134834, No Iterations 1
GAMG:  Solving for p, Initial residual = 0.00586671, Final residual = 0.000231748, No Iterations 2
GAMG:  Solving for p, Initial residual = 0.00327118, Final residual = 0.000248203, No Iterations 1
GAMG:  Solving for p, Initial residual = 0.00147143, Final residual = 6.86049e-05, No Iterations 2
time step continuity errors : sum local = 0.0104, global = -0.00219121, cumulative = -4.75458
ExecutionTime = 4.78 s  ClockTime = 4 s

Time = 69

smoothSolver:  Solving for Ux, Initial residual = 0.00862833, Final residual = 3.82861e-06, No Iterations 2
smoothSolver:  Solving for Uy, Initial residual = 0.0086045, Final residual = 3.78706e-06, No Iterations 2
smoothSolver:  Solving for Uz, Initial residual = 0.00721129, Final residual = 2.97659e-06, No Iterations 2
GAMG:  Solving for p, Initial residual = 0.0643368, Final residual = 0.0037117, No Iterations 1
GAMG:  Solving for p, Initial residual = 0.0156542, Final residual = 0.00131386, No Iterations 1
GAMG:  Solving for p, Initial residual = 0.00571981, Final residual = 0.000218052, No Iterations 2
GAMG:  Solving for p, Initial residual = 0.00312907, Final residual = 0.000238803, No Iterations 1
GAMG:  Solving for p, Initial residual = 0.00141706, Final residual = 6.57524e-05, No Iterations 2
time step continuity errors : sum local = 0.0100263, global = -0.00216988, cumulative = -4.75675
ExecutionTime = 4.85 s  ClockTime = 4 s

Time = 70

smoothSolver:  Solving for Ux, Initial residual = 0.00851524, Final residual = 3.78171e-06, No Iterations 2
smoothSolver:  Solving for Uy, Initial residual = 0.00848839, Final residual = 3.76034e-06, No Iterations 2
smoothSolver:  Solving for Uz, Initial residual = 0.00706816, Final residual = 2.92046e-06, No Iterations 2
GAMG:  Solving for p, Initial residual = 0.0630424, Final residual = 0.00361806, No Iterations 1
GAMG:  Solving for p, Initial residual = 0.0154325, Final residual = 0.0012881, No Iterations 1
GAMG:  Solving for p, Initial residual = 0.00562665, Final residual = 0.000200504, No Iterations 2
GAMG:  Solving for p, Initial residual = 0.00296077, Final residual = 0.000227101, No Iterations 1
GAMG:  Solving for p, Initial residual = 0.00136014, Final residual = 6.14365e-05, No Iterations 2
time step continuity errors : sum local = 0.00936301, global = -0.00222171, cumulative = -4.75897
ExecutionTime = 4.92 s  ClockTime = 4 s

Time = 71

smoothSolver:  Solving for Ux, Initial residual = 0.00840628, Final residual = 3.751e-06, No Iterations 2
smoothSolver:  Solving for Uy, Initial residual = 0.00837167, Final residual = 3.73127e-06, No Iterations 2
smoothSolver:  Solving for Uz, Initial residual = 0.00692124, Final residual = 2.87529e-06, No Iterations 2
GAMG:  Solving for p, Initial residual = 0.0618104, Final residual = 0.00353404, No Iterations 1
GAMG:  Solving for p, Initial residual = 0.0151863, Final residual = 0.00125536, No Iterations 1
GAMG:  Solving for p, Initial residual = 0.0055434, Final residual = 0.00018368, No Iterations 2
GAMG:  Solving for p, Initial residual = 0.00281832, Final residual = 0.000214296, No Iterations 1
GAMG:  Solving for p, Initial residual = 0.001309, Final residual = 5.31356e-05, No Iterations 2
time step continuity errors : sum local = 0.00809032, global = -0.00231847, cumulative = -4.76129
ExecutionTime = 4.98 s  ClockTime = 5 s

Time = 72

smoothSolver:  Solving for Ux, Initial residual = 0.00829755, Final residual = 3.69672e-06, No Iterations 2
smoothSolver:  Solving for Uy, Initial residual = 0.00825687, Final residual = 3.67602e-06, No Iterations 2
smoothSolver:  Solving for Uz, Initial residual = 0.00677752, Final residual = 2.81426e-06, No Iterations 2
GAMG:  Solving for p, Initial residual = 0.0609878, Final residual = 0.00347918, No Iterations 1
GAMG:  Solving for p, Initial residual = 0.0149807, Final residual = 0.00123167, No Iterations 1
GAMG:  Solving for p, Initial residual = 0.00547649, Final residual = 0.000173103, No Iterations 2
GAMG:  Solving for p, Initial residual = 0.00273697, Final residual = 0.00020393, No Iterations 1
GAMG:  Solving for p, Initial residual = 0.00127402, Final residual = 4.34629e-05, No Iterations 2
time step continuity errors : sum local = 0.0066012, global = -0.00217106, cumulative = -4.76346
ExecutionTime = 5.05 s  ClockTime = 5 s

Time = 73

smoothSolver:  Solving for Ux, Initial residual = 0.00819173, Final residual = 3.63695e-06, No Iterations 2
smoothSolver:  Solving for Uy, Initial residual = 0.00814518, Final residual = 3.62444e-06, No Iterations 2
smoothSolver:  Solving for Uz, Initial residual = 0.00664598, Final residual = 2.75913e-06, No Iterations 2
GAMG:  Solving for p, Initial residual = 0.0601714, Final residual = 0.00343759, No Iterations 1
GAMG:  Solving for p, Initial residual = 0.0147932, Final residual = 0.00120865, No Iterations 1
GAMG:  Solving for p, Initial residual = 0.00541733, Final residual = 0.000170315, No Iterations 2
GAMG:  Solving for p, Initial residual = 0.00269088, Final residual = 0.000200095, No Iterations 1
GAMG:  Solving for p, Initial residual = 0.00125707, Final residual = 4.17187e-05, No Iterations 2
time step continuity errors : sum local = 0.00632597, global = -0.000841511, cumulative = -4.7643
ExecutionTime = 5.12 s  ClockTime = 5 s

Time = 74

smoothSolver:  Solving for Ux, Initial residual = 0.00808983, Final residual = 3.57932e-06, No Iterations 2
smoothSolver:  Solving for Uy, Initial residual = 0.00803233, Final residual = 3.57328e-06, No Iterations 2
smoothSolver:  Solving for Uz, Initial residual = 0.00652236, Final residual = 2.69904e-06, No Iterations 2
GAMG:  Solving for p, Initial residual = 0.0594138, Final residual = 0.00341015, No Iterations 1
GAMG:  Solving for p, Initial residual = 0.014619, Final residual = 0.00119562, No Iterations 1
GAMG:  Solving for p, Initial residual = 0.00536735, Final residual = 0.000173338, No Iterations 2
GAMG:  Solving for p, Initial residual = 0.00266187, Final residual = 0.000201649, No Iterations 1
GAMG:  Solving for p, Initial residual = 0.00124398, Final residual = 4.42121e-05, No Iterations 2
time step continuity errors : sum local = 0.00669204, global = 0.000328597, cumulative = -4.76397
ExecutionTime = 5.19 s  ClockTime = 5 s

Time = 75

smoothSolver:  Solving for Ux, Initial residual = 0.00797703, Final residual = 3.51835e-06, No Iterations 2
smoothSolver:  Solving for Uy, Initial residual = 0.00792494, Final residual = 3.52117e-06, No Iterations 2
smoothSolver:  Solving for Uz, Initial residual = 0.00639685, Final residual = 2.63708e-06, No Iterations 2
GAMG:  Solving for p, Initial residual = 0.0587508, Final residual = 0.0033673, No Iterations 1
GAMG:  Solving for p, Initial residual = 0.0144757, Final residual = 0.00118027, No Iterations 1
GAMG:  Solving for p, Initial residual = 0.00531823, Final residual = 0.000173446, No Iterations 2
GAMG:  Solving for p, Initial residual = 0.00263676, Final residual = 0.000200612, No Iterations 1
GAMG:  Solving for p, Initial residual = 0.00122948, Final residual = 4.45801e-05, No Iterations 2
time step continuity errors : sum local = 0.00674874, global = 0.000657405, cumulative = -4.76332
ExecutionTime = 5.25 s  ClockTime = 5 s

Time = 76

smoothSolver:  Solving for Ux, Initial residual = 0.00787183, Final residual = 3.46262e-06, No Iterations 2
smoothSolver:  Solving for Uy, Initial residual = 0.0078102, Final residual = 3.45424e-06, No Iterations 2
smoothSolver:  Solving for Uz, Initial residual = 0.00627219, Final residual = 2.5731e-06, No Iterations 2
GAMG:  Solving for p, Initial residual = 0.0580212, Final residual = 0.00333217, No Iterations 1
GAMG:  Solving for p, Initial residual = 0.0143284, Final residual = 0.00116526, No Iterations 1
GAMG:  Solving for p, Initial residual = 0.00525717, Final residual = 0.000172115, No Iterations 2
GAMG:  Solving for p, Initial residual = 0.0025939, Final residual = 0.000197121, No Iterations 1
GAMG:  Solving for p, Initial residual = 0.00120768, Final residual = 4.40225e-05, No Iterations 2
time step continuity errors : sum local = 0.0066783, global = 0.000600099, cumulative = -4.76272
ExecutionTime = 5.31 s  ClockTime = 5 s

Time = 77

smoothSolver:  Solving for Ux, Initial residual = 0.00776451, Final residual = 3.42493e-06, No Iterations 2
smoothSolver:  Solving for Uy, Initial residual = 0.00769639, Final residual = 3.40701e-06, No Iterations 2
smoothSolver:  Solving for Uz, Initial residual = 0.00614679, Final residual = 2.52549e-06, No Iterations 2
GAMG:  Solving for p, Initial residual = 0.0573534, Final residual = 0.00328337, No Iterations 1
GAMG:  Solving for p, Initial residual = 0.0140921, Final residual = 0.00114521, No Iterations 1
GAMG:  Solving for p, Initial residual = 0.0051671, Final residual = 0.000515417, No Iterations 1
GAMG:  Solving for p, Initial residual = 0.00240956, Final residual = 9.65575e-05, No Iterations 2
GAMG:  Solving for p, Initial residual = 0.00140247, Final residual = 0.000113712, No Iterations 1
time step continuity errors : sum local = 0.0173277, global = -4.27342e-05, cumulative = -4.76276
ExecutionTime = 5.38 s  ClockTime = 5 s

Time = 78

smoothSolver:  Solving for Ux, Initial residual = 0.00766279, Final residual = 3.36675e-06, No Iterations 2
smoothSolver:  Solving for Uy, Initial residual = 0.0075758, Final residual = 3.34688e-06, No Iterations 2
smoothSolver:  Solving for Uz, Initial residual = 0.00602751, Final residual = 2.47084e-06, No Iterations 2
GAMG:  Solving for p, Initial residual = 0.0566426, Final residual = 0.00323809, No Iterations 1
GAMG:  Solving for p, Initial residual = 0.0138929, Final residual = 0.00112723, No Iterations 1
GAMG:  Solving for p, Initial residual = 0.0050882, Final residual = 0.000506122, No Iterations 1
GAMG:  Solving for p, Initial residual = 0.00236993, Final residual = 9.34099e-05, No Iterations 2
GAMG:  Solving for p, Initial residual = 0.00137403, Final residual = 0.000110055, No Iterations 1
time step continuity errors : sum local = 0.0168183, global = -0.00115483, cumulative = -4.76391
ExecutionTime = 5.44 s  ClockTime = 5 s

Time = 79

smoothSolver:  Solving for Ux, Initial residual = 0.0075606, Final residual = 3.31266e-06, No Iterations 2
smoothSolver:  Solving for Uy, Initial residual = 0.00745818, Final residual = 3.28646e-06, No Iterations 2
smoothSolver:  Solving for Uz, Initial residual = 0.00591483, Final residual = 2.42528e-06, No Iterations 2
GAMG:  Solving for p, Initial residual = 0.0559386, Final residual = 0.00317388, No Iterations 1
GAMG:  Solving for p, Initial residual = 0.013731, Final residual = 0.00110262, No Iterations 1
GAMG:  Solving for p, Initial residual = 0.00501957, Final residual = 0.000493374, No Iterations 1
GAMG:  Solving for p, Initial residual = 0.00232598, Final residual = 8.81026e-05, No Iterations 2
GAMG:  Solving for p, Initial residual = 0.0013447, Final residual = 0.000105014, No Iterations 1
time step continuity errors : sum local = 0.0160938, global = -0.00237051, cumulative = -4.76628
ExecutionTime = 5.5 s  ClockTime = 5 s

Time = 80

smoothSolver:  Solving for Ux, Initial residual = 0.00746121, Final residual = 3.25871e-06, No Iterations 2
smoothSolver:  Solving for Uy, Initial residual = 0.00734285, Final residual = 3.22155e-06, No Iterations 2
smoothSolver:  Solving for Uz, Initial residual = 0.0058067, Final residual = 2.37642e-06, No Iterations 2
GAMG:  Solving for p, Initial residual = 0.0551424, Final residual = 0.00312357, No Iterations 1
GAMG:  Solving for p, Initial residual = 0.0135427, Final residual = 0.00108019, No Iterations 1
GAMG:  Solving for p, Initial residual = 0.00494069, Final residual = 0.000481134, No Iterations 1
GAMG:  Solving for p, Initial residual = 0.0022805, Final residual = 8.45105e-05, No Iterations 2
GAMG:  Solving for p, Initial residual = 0.00132388, Final residual = 0.000101748, No Iterations 1
time step continuity errors : sum local = 0.0156444, global = -0.00332384, cumulative = -4.76961
ExecutionTime = 5.57 s  ClockTime = 5 s

Time = 81

smoothSolver:  Solving for Ux, Initial residual = 0.00736229, Final residual = 3.22726e-06, No Iterations 2
smoothSolver:  Solving for Uy, Initial residual = 0.00722659, Final residual = 3.18388e-06, No Iterations 2
smoothSolver:  Solving for Uz, Initial residual = 0.00569545, Final residual = 2.33792e-06, No Iterations 2
GAMG:  Solving for p, Initial residual = 0.054428, Final residual = 0.00307475, No Iterations 1
GAMG:  Solving for p, Initial residual = 0.0133552, Final residual = 0.00106094, No Iterations 1
GAMG:  Solving for p, Initial residual = 0.00485721, Final residual = 0.000471645, No Iterations 1
GAMG:  Solving for p, Initial residual = 0.00224137, Final residual = 8.29201e-05, No Iterations 2
GAMG:  Solving for p, Initial residual = 0.00131531, Final residual = 9.97599e-05, No Iterations 1
time step continuity errors : sum local = 0.0153934, global = -0.00374685, cumulative = -4.77336
ExecutionTime = 5.63 s  ClockTime = 5 s

Time = 82

smoothSolver:  Solving for Ux, Initial residual = 0.00726127, Final residual = 3.19986e-06, No Iterations 2
smoothSolver:  Solving for Uy, Initial residual = 0.0071229, Final residual = 3.15873e-06, No Iterations 2
smoothSolver:  Solving for Uz, Initial residual = 0.00559249, Final residual = 2.30544e-06, No Iterations 2
GAMG:  Solving for p, Initial residual = 0.0537638, Final residual = 0.00301626, No Iterations 1
GAMG:  Solving for p, Initial residual = 0.0131471, Final residual = 0.00103794, No Iterations 1
GAMG:  Solving for p, Initial residual = 0.00476038, Final residual = 0.000460951, No Iterations 1
GAMG:  Solving for p, Initial residual = 0.0021956, Final residual = 8.24988e-05, No Iterations 2
GAMG:  Solving for p, Initial residual = 0.00130222, Final residual = 9.82819e-05, No Iterations 1
time step continuity errors : sum local = 0.0152368, global = -0.00390029, cumulative = -4.77726
ExecutionTime = 5.69 s  ClockTime = 5 s

Time = 83

[...]
GAMG:  Solving for p, Initial residual = 0.0114788, Final residual = 0.000939893, No Iterations 1
GAMG:  Solving for p, Initial residual = 0.00387118, Final residual = 0.000124447, No Iterations 2
GAMG:  Solving for p, Initial residual = 0.00185023, Final residual = 0.00014367, No Iterations 1
GAMG:  Solving for p, Initial residual = 0.000799919, Final residual = 3.27605e-05, No Iterations 2
time step continuity errors : sum local = 0.0201485, global = -0.0035237, cumulative = -6.12787
ExecutionTime = 133.68 s  ClockTime = 133 s

Time = 1981

smoothSolver:  Solving for Ux, Initial residual = 0.00509107, Final residual = 2.46708e-06, No Iterations 2
smoothSolver:  Solving for Uy, Initial residual = 0.00480739, Final residual = 2.25978e-06, No Iterations 2
smoothSolver:  Solving for Uz, Initial residual = 0.00304912, Final residual = 1.30727e-06, No Iterations 2
GAMG:  Solving for p, Initial residual = 0.0474303, Final residual = 0.00283676, No Iterations 1
GAMG:  Solving for p, Initial residual = 0.011486, Final residual = 0.000937591, No Iterations 1
GAMG:  Solving for p, Initial residual = 0.00388275, Final residual = 0.000123737, No Iterations 2
GAMG:  Solving for p, Initial residual = 0.00184823, Final residual = 0.00014308, No Iterations 1
GAMG:  Solving for p, Initial residual = 0.000800003, Final residual = 3.21666e-05, No Iterations 2
time step continuity errors : sum local = 0.0197684, global = -0.00339101, cumulative = -6.13126
ExecutionTime = 133.75 s  ClockTime = 133 s

Time = 1982

smoothSolver:  Solving for Ux, Initial residual = 0.00508327, Final residual = 2.47942e-06, No Iterations 2
smoothSolver:  Solving for Uy, Initial residual = 0.00479799, Final residual = 2.24767e-06, No Iterations 2
smoothSolver:  Solving for Uz, Initial residual = 0.00303934, Final residual = 1.31031e-06, No Iterations 2
GAMG:  Solving for p, Initial residual = 0.0474696, Final residual = 0.00281172, No Iterations 1
GAMG:  Solving for p, Initial residual = 0.0114262, Final residual = 0.000930205, No Iterations 1
GAMG:  Solving for p, Initial residual = 0.00386049, Final residual = 0.000121584, No Iterations 2
GAMG:  Solving for p, Initial residual = 0.00182383, Final residual = 0.000141013, No Iterations 1
GAMG:  Solving for p, Initial residual = 0.000792117, Final residual = 3.17819e-05, No Iterations 2
time step continuity errors : sum local = 0.0195695, global = -0.00331524, cumulative = -6.13458
ExecutionTime = 133.81 s  ClockTime = 133 s

Time = 1983

smoothSolver:  Solving for Ux, Initial residual = 0.00507154, Final residual = 2.4798e-06, No Iterations 2
smoothSolver:  Solving for Uy, Initial residual = 0.00478538, Final residual = 2.23033e-06, No Iterations 2
smoothSolver:  Solving for Uz, Initial residual = 0.00302896, Final residual = 1.30771e-06, No Iterations 2
GAMG:  Solving for p, Initial residual = 0.0474578, Final residual = 0.00277986, No Iterations 1
GAMG:  Solving for p, Initial residual = 0.0113729, Final residual = 0.000919782, No Iterations 1
GAMG:  Solving for p, Initial residual = 0.00384547, Final residual = 0.000118611, No Iterations 2
GAMG:  Solving for p, Initial residual = 0.0018073, Final residual = 0.000139494, No Iterations 1
GAMG:  Solving for p, Initial residual = 0.000788, Final residual = 3.15803e-05, No Iterations 2
time step continuity errors : sum local = 0.0194497, global = -0.00320531, cumulative = -6.13778
ExecutionTime = 133.88 s  ClockTime = 133 s

Time = 1984

smoothSolver:  Solving for Ux, Initial residual = 0.00506953, Final residual = 2.47977e-06, No Iterations 2
smoothSolver:  Solving for Uy, Initial residual = 0.00477933, Final residual = 2.24388e-06, No Iterations 2
smoothSolver:  Solving for Uz, Initial residual = 0.00301955, Final residual = 1.30861e-06, No Iterations 2
GAMG:  Solving for p, Initial residual = 0.0472571, Final residual = 0.00276356, No Iterations 1
GAMG:  Solving for p, Initial residual = 0.0113153, Final residual = 0.000911175, No Iterations 1
GAMG:  Solving for p, Initial residual = 0.00382507, Final residual = 0.00011811, No Iterations 2
GAMG:  Solving for p, Initial residual = 0.00180237, Final residual = 0.000138735, No Iterations 1
GAMG:  Solving for p, Initial residual = 0.000791255, Final residual = 3.16022e-05, No Iterations 2
time step continuity errors : sum local = 0.0194874, global = -0.00318192, cumulative = -6.14097
ExecutionTime = 133.94 s  ClockTime = 134 s

Time = 1985

smoothSolver:  Solving for Ux, Initial residual = 0.00506593, Final residual = 2.47338e-06, No Iterations 2
smoothSolver:  Solving for Uy, Initial residual = 0.004768, Final residual = 2.22552e-06, No Iterations 2
smoothSolver:  Solving for Uz, Initial residual = 0.00301422, Final residual = 1.31302e-06, No Iterations 2
GAMG:  Solving for p, Initial residual = 0.0472103, Final residual = 0.00275829, No Iterations 1
GAMG:  Solving for p, Initial residual = 0.0113253, Final residual = 0.000899721, No Iterations 1
GAMG:  Solving for p, Initial residual = 0.00380872, Final residual = 0.000115745, No Iterations 2
GAMG:  Solving for p, Initial residual = 0.00180719, Final residual = 0.000138421, No Iterations 1
GAMG:  Solving for p, Initial residual = 0.000796474, Final residual = 3.21044e-05, No Iterations 2
time step continuity errors : sum local = 0.0198635, global = -0.00310468, cumulative = -6.14407
ExecutionTime = 134.01 s  ClockTime = 134 s

Time = 1986

smoothSolver:  Solving for Ux, Initial residual = 0.00506931, Final residual = 2.48509e-06, No Iterations 2
smoothSolver:  Solving for Uy, Initial residual = 0.00476206, Final residual = 2.24609e-06, No Iterations 2
smoothSolver:  Solving for Uz, Initial residual = 0.00301635, Final residual = 1.32371e-06, No Iterations 2
GAMG:  Solving for p, Initial residual = 0.0471302, Final residual = 0.00276432, No Iterations 1
GAMG:  Solving for p, Initial residual = 0.0113134, Final residual = 0.000894325, No Iterations 1
GAMG:  Solving for p, Initial residual = 0.00379913, Final residual = 0.000116389, No Iterations 2
GAMG:  Solving for p, Initial residual = 0.00182663, Final residual = 0.000139312, No Iterations 1
GAMG:  Solving for p, Initial residual = 0.000801012, Final residual = 3.3171e-05, No Iterations 2
time step continuity errors : sum local = 0.0205489, global = -0.00315086, cumulative = -6.14722
ExecutionTime = 134.08 s  ClockTime = 134 s

Time = 1987

smoothSolver:  Solving for Ux, Initial residual = 0.00507479, Final residual = 2.47775e-06, No Iterations 2
smoothSolver:  Solving for Uy, Initial residual = 0.00474418, Final residual = 2.261e-06, No Iterations 2
smoothSolver:  Solving for Uz, Initial residual = 0.00301968, Final residual = 1.32126e-06, No Iterations 2
GAMG:  Solving for p, Initial residual = 0.0468103, Final residual = 0.00276842, No Iterations 1
GAMG:  Solving for p, Initial residual = 0.0112241, Final residual = 0.00088489, No Iterations 1
GAMG:  Solving for p, Initial residual = 0.00378095, Final residual = 0.000114342, No Iterations 2
GAMG:  Solving for p, Initial residual = 0.00183433, Final residual = 0.000138863, No Iterations 1
GAMG:  Solving for p, Initial residual = 0.000799908, Final residual = 3.33308e-05, No Iterations 2
time step continuity errors : sum local = 0.0208074, global = -0.00318417, cumulative = -6.15041
ExecutionTime = 134.15 s  ClockTime = 134 s

Time = 1988

smoothSolver:  Solving for Ux, Initial residual = 0.00506317, Final residual = 2.43617e-06, No Iterations 2
smoothSolver:  Solving for Uy, Initial residual = 0.00472372, Final residual = 2.26232e-06, No Iterations 2
smoothSolver:  Solving for Uz, Initial residual = 0.0030215, Final residual = 1.30863e-06, No Iterations 2
GAMG:  Solving for p, Initial residual = 0.0463536, Final residual = 0.00276267, No Iterations 1
GAMG:  Solving for p, Initial residual = 0.0110783, Final residual = 0.000887254, No Iterations 1
GAMG:  Solving for p, Initial residual = 0.00374389, Final residual = 0.000115439, No Iterations 2
GAMG:  Solving for p, Initial residual = 0.00186079, Final residual = 0.000141163, No Iterations 1
GAMG:  Solving for p, Initial residual = 0.000806214, Final residual = 3.42196e-05, No Iterations 2
time step continuity errors : sum local = 0.0215323, global = -0.00329901, cumulative = -6.15371
ExecutionTime = 134.22 s  ClockTime = 134 s

Time = 1989

smoothSolver:  Solving for Ux, Initial residual = 0.00505224, Final residual = 2.40442e-06, No Iterations 2
smoothSolver:  Solving for Uy, Initial residual = 0.00471631, Final residual = 2.26831e-06, No Iterations 2
smoothSolver:  Solving for Uz, Initial residual = 0.00302097, Final residual = 1.30547e-06, No Iterations 2
GAMG:  Solving for p, Initial residual = 0.0460114, Final residual = 0.00277058, No Iterations 1
GAMG:  Solving for p, Initial residual = 0.0109473, Final residual = 0.00089184, No Iterations 1
GAMG:  Solving for p, Initial residual = 0.00373254, Final residual = 0.000116766, No Iterations 2
GAMG:  Solving for p, Initial residual = 0.0018907, Final residual = 0.000143192, No Iterations 1
GAMG:  Solving for p, Initial residual = 0.00081652, Final residual = 3.47319e-05, No Iterations 2
time step continuity errors : sum local = 0.0220182, global = -0.0033096, cumulative = -6.15702
ExecutionTime = 134.28 s  ClockTime = 134 s

Time = 1990

smoothSolver:  Solving for Ux, Initial residual = 0.00504954, Final residual = 2.38949e-06, No Iterations 2
smoothSolver:  Solving for Uy, Initial residual = 0.00472194, Final residual = 2.27254e-06, No Iterations 2
smoothSolver:  Solving for Uz, Initial residual = 0.00302321, Final residual = 1.29539e-06, No Iterations 2
GAMG:  Solving for p, Initial residual = 0.0458766, Final residual = 0.00276001, No Iterations 1
GAMG:  Solving for p, Initial residual = 0.010898, Final residual = 0.000899653, No Iterations 1
GAMG:  Solving for p, Initial residual = 0.00373094, Final residual = 0.000119294, No Iterations 2
GAMG:  Solving for p, Initial residual = 0.0019113, Final residual = 0.000144514, No Iterations 1
GAMG:  Solving for p, Initial residual = 0.000823217, Final residual = 3.51741e-05, No Iterations 2
time step continuity errors : sum local = 0.0223501, global = -0.00330707, cumulative = -6.16032
ExecutionTime = 134.34 s  ClockTime = 134 s

Time = 1991

smoothSolver:  Solving for Ux, Initial residual = 0.0050413, Final residual = 2.37167e-06, No Iterations 2
smoothSolver:  Solving for Uy, Initial residual = 0.00473417, Final residual = 2.28432e-06, No Iterations 2
smoothSolver:  Solving for Uz, Initial residual = 0.00302199, Final residual = 1.29956e-06, No Iterations 2
GAMG:  Solving for p, Initial residual = 0.0459079, Final residual = 0.00275628, No Iterations 1
GAMG:  Solving for p, Initial residual = 0.0109434, Final residual = 0.000904705, No Iterations 1
GAMG:  Solving for p, Initial residual = 0.00375128, Final residual = 0.000120018, No Iterations 2
GAMG:  Solving for p, Initial residual = 0.00192206, Final residual = 0.000145185, No Iterations 1
GAMG:  Solving for p, Initial residual = 0.000826999, Final residual = 3.5466e-05, No Iterations 2
time step continuity errors : sum local = 0.0226372, global = -0.00329294, cumulative = -6.16362
ExecutionTime = 134.42 s  ClockTime = 134 s

Time = 1992

smoothSolver:  Solving for Ux, Initial residual = 0.00503818, Final residual = 2.37072e-06, No Iterations 2
smoothSolver:  Solving for Uy, Initial residual = 0.00474252, Final residual = 2.30781e-06, No Iterations 2
smoothSolver:  Solving for Uz, Initial residual = 0.00301613, Final residual = 1.29866e-06, No Iterations 2
GAMG:  Solving for p, Initial residual = 0.0458412, Final residual = 0.00275642, No Iterations 1
GAMG:  Solving for p, Initial residual = 0.0109495, Final residual = 0.000902105, No Iterations 1
GAMG:  Solving for p, Initial residual = 0.00375592, Final residual = 0.00011941, No Iterations 2
GAMG:  Solving for p, Initial residual = 0.00191386, Final residual = 0.000144397, No Iterations 1
GAMG:  Solving for p, Initial residual = 0.000826508, Final residual = 3.54146e-05, No Iterations 2
time step continuity errors : sum local = 0.0227144, global = -0.00333478, cumulative = -6.16695
ExecutionTime = 134.48 s  ClockTime = 134 s

Time = 1993

smoothSolver:  Solving for Ux, Initial residual = 0.00503902, Final residual = 2.34487e-06, No Iterations 2
smoothSolver:  Solving for Uy, Initial residual = 0.00473905, Final residual = 2.311e-06, No Iterations 2
smoothSolver:  Solving for Uz, Initial residual = 0.00300881, Final residual = 1.30218e-06, No Iterations 2
GAMG:  Solving for p, Initial residual = 0.0457792, Final residual = 0.00277706, No Iterations 1
GAMG:  Solving for p, Initial residual = 0.0109004, Final residual = 0.000894979, No Iterations 1
GAMG:  Solving for p, Initial residual = 0.00372468, Final residual = 0.000116923, No Iterations 2
GAMG:  Solving for p, Initial residual = 0.00187585, Final residual = 0.000142028, No Iterations 1
GAMG:  Solving for p, Initial residual = 0.000809333, Final residual = 3.47625e-05, No Iterations 2
time step continuity errors : sum local = 0.0224091, global = -0.00334983, cumulative = -6.1703
ExecutionTime = 134.54 s  ClockTime = 134 s

Time = 1994

smoothSolver:  Solving for Ux, Initial residual = 0.00504053, Final residual = 2.33528e-06, No Iterations 2
smoothSolver:  Solving for Uy, Initial residual = 0.0047277, Final residual = 2.29551e-06, No Iterations 2
smoothSolver:  Solving for Uz, Initial residual = 0.00299973, Final residual = 1.31139e-06, No Iterations 2
GAMG:  Solving for p, Initial residual = 0.045464, Final residual = 0.0027757, No Iterations 1
GAMG:  Solving for p, Initial residual = 0.0107757, Final residual = 0.000885997, No Iterations 1
GAMG:  Solving for p, Initial residual = 0.00366123, Final residual = 0.000113784, No Iterations 2
GAMG:  Solving for p, Initial residual = 0.00182426, Final residual = 0.000138223, No Iterations 1
GAMG:  Solving for p, Initial residual = 0.000785641, Final residual = 3.33401e-05, No Iterations 2
time step continuity errors : sum local = 0.021571, global = -0.00320679, cumulative = -6.17351
ExecutionTime = 134.62 s  ClockTime = 134 s

Time = 1995

smoothSolver:  Solving for Ux, Initial residual = 0.00504839, Final residual = 2.33072e-06, No Iterations 2
smoothSolver:  Solving for Uy, Initial residual = 0.00473192, Final residual = 2.28443e-06, No Iterations 2
smoothSolver:  Solving for Uz, Initial residual = 0.00299874, Final residual = 1.31968e-06, No Iterations 2
GAMG:  Solving for p, Initial residual = 0.0453433, Final residual = 0.00277351, No Iterations 1
GAMG:  Solving for p, Initial residual = 0.0107512, Final residual = 0.000880542, No Iterations 1
GAMG:  Solving for p, Initial residual = 0.00363372, Final residual = 0.000111433, No Iterations 2
GAMG:  Solving for p, Initial residual = 0.00179551, Final residual = 0.000134829, No Iterations 1
GAMG:  Solving for p, Initial residual = 0.000772215, Final residual = 3.22466e-05, No Iterations 2
time step continuity errors : sum local = 0.0208958, global = -0.00304193, cumulative = -6.17655
ExecutionTime = 134.68 s  ClockTime = 134 s

Time = 1996

smoothSolver:  Solving for Ux, Initial residual = 0.00505046, Final residual = 2.32855e-06, No Iterations 2
smoothSolver:  Solving for Uy, Initial residual = 0.00473498, Final residual = 2.26863e-06, No Iterations 2
smoothSolver:  Solving for Uz, Initial residual = 0.00299974, Final residual = 1.32387e-06, No Iterations 2
GAMG:  Solving for p, Initial residual = 0.0450182, Final residual = 0.00274468, No Iterations 1
GAMG:  Solving for p, Initial residual = 0.0107022, Final residual = 0.000877403, No Iterations 1
GAMG:  Solving for p, Initial residual = 0.00360743, Final residual = 0.000111978, No Iterations 2
GAMG:  Solving for p, Initial residual = 0.00177682, Final residual = 0.000134124, No Iterations 1
GAMG:  Solving for p, Initial residual = 0.00076647, Final residual = 3.15843e-05, No Iterations 2
time step continuity errors : sum local = 0.0205393, global = -0.00298832, cumulative = -6.17954
ExecutionTime = 134.74 s  ClockTime = 134 s

Time = 1997

smoothSolver:  Solving for Ux, Initial residual = 0.00504183, Final residual = 2.34751e-06, No Iterations 2
smoothSolver:  Solving for Uy, Initial residual = 0.00473543, Final residual = 2.25622e-06, No Iterations 2
smoothSolver:  Solving for Uz, Initial residual = 0.00300418, Final residual = 1.31843e-06, No Iterations 2
GAMG:  Solving for p, Initial residual = 0.0450813, Final residual = 0.00272657, No Iterations 1
GAMG:  Solving for p, Initial residual = 0.0107026, Final residual = 0.000880533, No Iterations 1
GAMG:  Solving for p, Initial residual = 0.00362806, Final residual = 0.000114719, No Iterations 2
GAMG:  Solving for p, Initial residual = 0.00178449, Final residual = 0.00013708, No Iterations 1
GAMG:  Solving for p, Initial residual = 0.000775898, Final residual = 3.18068e-05, No Iterations 2
time step continuity errors : sum local = 0.0207795, global = -0.00307431, cumulative = -6.18261
ExecutionTime = 134.81 s  ClockTime = 134 s

Time = 1998

smoothSolver:  Solving for Ux, Initial residual = 0.0050413, Final residual = 2.39043e-06, No Iterations 2
smoothSolver:  Solving for Uy, Initial residual = 0.00474333, Final residual = 2.25253e-06, No Iterations 2
smoothSolver:  Solving for Uz, Initial residual = 0.00300838, Final residual = 1.31528e-06, No Iterations 2
GAMG:  Solving for p, Initial residual = 0.0454952, Final residual = 0.00270565, No Iterations 1
GAMG:  Solving for p, Initial residual = 0.0107718, Final residual = 0.00089214, No Iterations 1
GAMG:  Solving for p, Initial residual = 0.00366413, Final residual = 0.000118781, No Iterations 2
GAMG:  Solving for p, Initial residual = 0.00179974, Final residual = 0.000139754, No Iterations 1
GAMG:  Solving for p, Initial residual = 0.000785054, Final residual = 3.2649e-05, No Iterations 2
time step continuity errors : sum local = 0.0213969, global = -0.00322105, cumulative = -6.18583
ExecutionTime = 134.88 s  ClockTime = 134 s

Time = 1999

smoothSolver:  Solving for Ux, Initial residual = 0.00502428, Final residual = 2.40534e-06, No Iterations 2
smoothSolver:  Solving for Uy, Initial residual = 0.00472906, Final residual = 2.24307e-06, No Iterations 2
smoothSolver:  Solving for Uz, Initial residual = 0.00301104, Final residual = 1.31533e-06, No Iterations 2
GAMG:  Solving for p, Initial residual = 0.045691, Final residual = 0.00271016, No Iterations 1
GAMG:  Solving for p, Initial residual = 0.0108891, Final residual = 0.000910368, No Iterations 1
GAMG:  Solving for p, Initial residual = 0.00370745, Final residual = 0.000121907, No Iterations 2
GAMG:  Solving for p, Initial residual = 0.00183513, Final residual = 0.000142134, No Iterations 1
GAMG:  Solving for p, Initial residual = 0.00079721, Final residual = 3.39619e-05, No Iterations 2
time step continuity errors : sum local = 0.0223379, global = -0.00336296, cumulative = -6.1892
ExecutionTime = 134.94 s  ClockTime = 135 s

Time = 2000

smoothSolver:  Solving for Ux, Initial residual = 0.00500967, Final residual = 2.40067e-06, No Iterations 2
smoothSolver:  Solving for Uy, Initial residual = 0.00471282, Final residual = 2.23552e-06, No Iterations 2
smoothSolver:  Solving for Uz, Initial residual = 0.00301278, Final residual = 1.31568e-06, No Iterations 2
GAMG:  Solving for p, Initial residual = 0.0458944, Final residual = 0.00272952, No Iterations 1
GAMG:  Solving for p, Initial residual = 0.0109608, Final residual = 0.000925531, No Iterations 1
GAMG:  Solving for p, Initial residual = 0.00375006, Final residual = 0.000123911, No Iterations 2
GAMG:  Solving for p, Initial residual = 0.00187457, Final residual = 0.000143732, No Iterations 1
GAMG:  Solving for p, Initial residual = 0.000810019, Final residual = 3.54125e-05, No Iterations 2
time step continuity errors : sum local = 0.0233066, global = -0.00354623, cumulative = -6.19274
ExecutionTime = 135.12 s  ClockTime = 135 s

End

