/*---------------------------------------------------------------------------*\
| =========                 |                                                 |
| \\      /  F ield         | OpenFOAM: The Open Source CFD Toolbox           |
|  \\    /   O peration     | Version:  2506                                  |
|   \\  /    A nd           | Website:  www.openfoam.com                      |
|    \\/     M anipulation  |                                                 |
\*---------------------------------------------------------------------------*/
Build  : _615aae61-20250627 OPENFOAM=2506 version=2506
Arch   : "LSB;label=32;scalar=64"
Exec   : simpleFoam -noFunctionObjects -case /home/ubuntu/fan_CFD_dataset/cases/fan_13
Date   : Nov 07 2025
Time   : 14:48:43
Host   : ip-172-31-37-87
PID    : 170801
I/O    : uncollated
Case   : /home/ubuntu/fan_CFD_dataset/cases/fan_13
nProcs : 1
trapFpe: Floating point exception trapping enabled (FOAM_SIGFPE).
fileModificationChecking : Monitoring run-time modified files using timeStampMaster (fileModificationSkew 5, maxFileModificationPolls 20)
allowSystemOperations : Allowing user-supplied system call operations

// * * * * * * * * * * * * * * * * * * * * * * * * * * * * * * * * * * * * * //
Create time

Create mesh for time = 0


SIMPLE: convergence criteria
    field U	 tolerance 1e-05
    field p	 tolerance 0.0001

Reading field p

Reading field U

Reading/calculating face flux field phi

Selecting incompressible transport model Newtonian
Selecting turbulence model type laminar
Selecting laminar stress model Stokes
No MRF models present

No finite volume options present

Starting time loop

Time = 1

smoothSolver:  Solving for Ux, Initial residual = 1, Final residual = 0.000300224, No Iterations 2
smoothSolver:  Solving for Uy, Initial residual = 1, Final residual = 0.000315345, No Iterations 2
smoothSolver:  Solving for Uz, Initial residual = 1, Final residual = 0.000582099, No Iterations 2
GAMG:  Solving for p, Initial residual = 1, Final residual = 0.0809911, No Iterations 3
GAMG:  Solving for p, Initial residual = 0.148797, Final residual = 0.0101483, No Iterations 1
GAMG:  Solving for p, Initial residual = 0.0411837, Final residual = 0.00171533, No Iterations 2
GAMG:  Solving for p, Initial residual = 0.0273595, Final residual = 0.00203048, No Iterations 1
GAMG:  Solving for p, Initial residual = 0.0120408, Final residual = 0.000581712, No Iterations 2
time step continuity errors : sum local = 4.77215, global = -1.09644, cumulative = -1.09644
ExecutionTime = 0.28 s  ClockTime = 0 s

Time = 2

smoothSolver:  Solving for Ux, Initial residual = 0.0938572, Final residual = 3.23921e-05, No Iterations 2
smoothSolver:  Solving for Uy, Initial residual = 0.0941223, Final residual = 3.37341e-05, No Iterations 2
smoothSolver:  Solving for Uz, Initial residual = 0.188937, Final residual = 5.79511e-05, No Iterations 2
GAMG:  Solving for p, Initial residual = 0.592875, Final residual = 0.0542704, No Iterations 3
GAMG:  Solving for p, Initial residual = 0.168462, Final residual = 0.0115487, No Iterations 1
GAMG:  Solving for p, Initial residual = 0.0540703, Final residual = 0.00510716, No Iterations 1
GAMG:  Solving for p, Initial residual = 0.0319556, Final residual = 0.00318854, No Iterations 1
GAMG:  Solving for p, Initial residual = 0.0211682, Final residual = 0.000954917, No Iterations 2
time step continuity errors : sum local = 6.9059, global = -1.29904, cumulative = -2.39548
ExecutionTime = 0.38 s  ClockTime = 0 s

Time = 3

smoothSolver:  Solving for Ux, Initial residual = 0.170514, Final residual = 7.79656e-05, No Iterations 2
smoothSolver:  Solving for Uy, Initial residual = 0.173801, Final residual = 8.07945e-05, No Iterations 2
smoothSolver:  Solving for Uz, Initial residual = 0.444302, Final residual = 0.000155315, No Iterations 2
GAMG:  Solving for p, Initial residual = 0.147715, Final residual = 0.00709216, No Iterations 3
GAMG:  Solving for p, Initial residual = 0.118107, Final residual = 0.0079863, No Iterations 1
GAMG:  Solving for p, Initial residual = 0.0373994, Final residual = 0.00370185, No Iterations 1
GAMG:  Solving for p, Initial residual = 0.0222514, Final residual = 0.000993056, No Iterations 2
GAMG:  Solving for p, Initial residual = 0.016921, Final residual = 0.00127813, No Iterations 1
time step continuity errors : sum local = 6.12487, global = -1.89455, cumulative = -4.29003
ExecutionTime = 0.46 s  ClockTime = 0 s

Time = 4

smoothSolver:  Solving for Ux, Initial residual = 0.163693, Final residual = 7.22005e-05, No Iterations 2
smoothSolver:  Solving for Uy, Initial residual = 0.165414, Final residual = 7.32568e-05, No Iterations 2
smoothSolver:  Solving for Uz, Initial residual = 0.504572, Final residual = 0.000178952, No Iterations 2
GAMG:  Solving for p, Initial residual = 0.0741081, Final residual = 0.0058318, No Iterations 1
GAMG:  Solving for p, Initial residual = 0.0270046, Final residual = 0.00132436, No Iterations 2
GAMG:  Solving for p, Initial residual = 0.0219742, Final residual = 0.00151438, No Iterations 1
GAMG:  Solving for p, Initial residual = 0.0105717, Final residual = 0.000463297, No Iterations 2
GAMG:  Solving for p, Initial residual = 0.00888207, Final residual = 0.000646215, No Iterations 1
time step continuity errors : sum local = 1.88482, global = -0.484994, cumulative = -4.77502
ExecutionTime = 0.54 s  ClockTime = 1 s

Time = 5

smoothSolver:  Solving for Ux, Initial residual = 0.123434, Final residual = 5.2129e-05, No Iterations 2
smoothSolver:  Solving for Uy, Initial residual = 0.124707, Final residual = 5.34595e-05, No Iterations 2
smoothSolver:  Solving for Uz, Initial residual = 0.474567, Final residual = 0.000164624, No Iterations 2
GAMG:  Solving for p, Initial residual = 0.0777541, Final residual = 0.0060972, No Iterations 2
GAMG:  Solving for p, Initial residual = 0.154001, Final residual = 0.0108416, No Iterations 1
GAMG:  Solving for p, Initial residual = 0.0680602, Final residual = 0.00332949, No Iterations 2
GAMG:  Solving for p, Initial residual = 0.0796314, Final residual = 0.00564383, No Iterations 1
GAMG:  Solving for p, Initial residual = 0.0403784, Final residual = 0.00189766, No Iterations 2
time step continuity errors : sum local = 1.49605, global = 0.276146, cumulative = -4.49888
ExecutionTime = 0.64 s  ClockTime = 1 s

Time = 6

smoothSolver:  Solving for Ux, Initial residual = 0.0844971, Final residual = 3.48547e-05, No Iterations 2
smoothSolver:  Solving for Uy, Initial residual = 0.0861576, Final residual = 3.58942e-05, No Iterations 2
smoothSolver:  Solving for Uz, Initial residual = 0.381053, Final residual = 0.000129325, No Iterations 2
GAMG:  Solving for p, Initial residual = 0.100504, Final residual = 0.00576998, No Iterations 3
GAMG:  Solving for p, Initial residual = 0.284096, Final residual = 0.0196231, No Iterations 1
GAMG:  Solving for p, Initial residual = 0.113497, Final residual = 0.00464812, No Iterations 2
GAMG:  Solving for p, Initial residual = 0.0762003, Final residual = 0.00549251, No Iterations 1
GAMG:  Solving for p, Initial residual = 0.0358231, Final residual = 0.00166321, No Iterations 2
time step continuity errors : sum local = 2.67442, global = 0.507993, cumulative = -3.99088
ExecutionTime = 0.73 s  ClockTime = 1 s

Time = 7

smoothSolver:  Solving for Ux, Initial residual = 0.058847, Final residual = 2.64507e-05, No Iterations 2
smoothSolver:  Solving for Uy, Initial residual = 0.0603535, Final residual = 2.68032e-05, No Iterations 2
smoothSolver:  Solving for Uz, Initial residual = 0.23246, Final residual = 8.38615e-05, No Iterations 2
GAMG:  Solving for p, Initial residual = 0.145669, Final residual = 0.00929652, No Iterations 3
GAMG:  Solving for p, Initial residual = 0.243281, Final residual = 0.0166642, No Iterations 1
GAMG:  Solving for p, Initial residual = 0.0857532, Final residual = 0.00851839, No Iterations 1
GAMG:  Solving for p, Initial residual = 0.0495213, Final residual = 0.00224293, No Iterations 2
GAMG:  Solving for p, Initial residual = 0.0360651, Final residual = 0.00266604, No Iterations 1
time step continuity errors : sum local = 6.90066, global = 2.14337, cumulative = -1.84751
ExecutionTime = 0.82 s  ClockTime = 1 s

Time = 8

smoothSolver:  Solving for Ux, Initial residual = 0.0547937, Final residual = 2.59897e-05, No Iterations 2
smoothSolver:  Solving for Uy, Initial residual = 0.0549452, Final residual = 2.56036e-05, No Iterations 2
smoothSolver:  Solving for Uz, Initial residual = 0.0920682, Final residual = 4.1363e-05, No Iterations 2
GAMG:  Solving for p, Initial residual = 0.300744, Final residual = 0.0175833, No Iterations 3
GAMG:  Solving for p, Initial residual = 0.204013, Final residual = 0.0138315, No Iterations 1
GAMG:  Solving for p, Initial residual = 0.0675386, Final residual = 0.00664336, No Iterations 1
GAMG:  Solving for p, Initial residual = 0.0396627, Final residual = 0.00180185, No Iterations 2
GAMG:  Solving for p, Initial residual = 0.0296021, Final residual = 0.0021909, No Iterations 1
time step continuity errors : sum local = 6.32407, global = 1.94291, cumulative = 0.0953998
ExecutionTime = 0.91 s  ClockTime = 1 s

Time = 9

smoothSolver:  Solving for Ux, Initial residual = 0.0680137, Final residual = 3.23982e-05, No Iterations 2
smoothSolver:  Solving for Uy, Initial residual = 0.0670369, Final residual = 3.18679e-05, No Iterations 2
smoothSolver:  Solving for Uz, Initial residual = 0.124327, Final residual = 4.9297e-05, No Iterations 2
GAMG:  Solving for p, Initial residual = 0.281845, Final residual = 0.0252329, No Iterations 2
GAMG:  Solving for p, Initial residual = 0.153457, Final residual = 0.0105863, No Iterations 1
GAMG:  Solving for p, Initial residual = 0.0547107, Final residual = 0.00258121, No Iterations 2
GAMG:  Solving for p, Initial residual = 0.0415175, Final residual = 0.00297353, No Iterations 1
GAMG:  Solving for p, Initial residual = 0.0200697, Final residual = 0.000931975, No Iterations 2
time step continuity errors : sum local = 2.31645, global = 0.431889, cumulative = 0.527289
ExecutionTime = 0.99 s  ClockTime = 1 s

Time = 10

smoothSolver:  Solving for Ux, Initial residual = 0.0822504, Final residual = 3.86546e-05, No Iterations 2
smoothSolver:  Solving for Uy, Initial residual = 0.0815357, Final residual = 3.88029e-05, No Iterations 2
smoothSolver:  Solving for Uz, Initial residual = 0.249586, Final residual = 8.63253e-05, No Iterations 2
GAMG:  Solving for p, Initial residual = 0.186028, Final residual = 0.0174741, No Iterations 1
GAMG:  Solving for p, Initial residual = 0.0770838, Final residual = 0.00394106, No Iterations 2
GAMG:  Solving for p, Initial residual = 0.0543131, Final residual = 0.00383413, No Iterations 1
GAMG:  Solving for p, Initial residual = 0.0252322, Final residual = 0.00116677, No Iterations 2
GAMG:  Solving for p, Initial residual = 0.0205497, Final residual = 0.00152489, No Iterations 1
time step continuity errors : sum local = 2.59313, global = 0.717802, cumulative = 1.24509
ExecutionTime = 1.08 s  ClockTime = 1 s

Time = 11

smoothSolver:  Solving for Ux, Initial residual = 0.0876049, Final residual = 4.23418e-05, No Iterations 2
smoothSolver:  Solving for Uy, Initial residual = 0.0875342, Final residual = 4.27654e-05, No Iterations 2
smoothSolver:  Solving for Uz, Initial residual = 0.325572, Final residual = 0.000111041, No Iterations 2
GAMG:  Solving for p, Initial residual = 0.157718, Final residual = 0.0134732, No Iterations 1
GAMG:  Solving for p, Initial residual = 0.0688987, Final residual = 0.00299132, No Iterations 2
GAMG:  Solving for p, Initial residual = 0.052941, Final residual = 0.00345068, No Iterations 1
GAMG:  Solving for p, Initial residual = 0.0221178, Final residual = 0.000887581, No Iterations 2
GAMG:  Solving for p, Initial residual = 0.0176624, Final residual = 0.00122842, No Iterations 1
time step continuity errors : sum local = 0.990607, global = -0.261701, cumulative = 0.983389
ExecutionTime = 1.17 s  ClockTime = 1 s

Time = 12

smoothSolver:  Solving for Ux, Initial residual = 0.0843571, Final residual = 4.1907e-05, No Iterations 2
smoothSolver:  Solving for Uy, Initial residual = 0.0848802, Final residual = 4.23625e-05, No Iterations 2
smoothSolver:  Solving for Uz, Initial residual = 0.318159, Final residual = 0.000108508, No Iterations 2
GAMG:  Solving for p, Initial residual = 0.157416, Final residual = 0.00977518, No Iterations 2
GAMG:  Solving for p, Initial residual = 0.284526, Final residual = 0.0195914, No Iterations 1
GAMG:  Solving for p, Initial residual = 0.111393, Final residual = 0.00534918, No Iterations 2
GAMG:  Solving for p, Initial residual = 0.0798949, Final residual = 0.00562052, No Iterations 1
GAMG:  Solving for p, Initial residual = 0.0357458, Final residual = 0.0016847, No Iterations 2
time step continuity errors : sum local = 1.04386, global = -0.194469, cumulative = 0.788921
ExecutionTime = 1.26 s  ClockTime = 1 s

Time = 13

smoothSolver:  Solving for Ux, Initial residual = 0.0766411, Final residual = 3.89992e-05, No Iterations 2
smoothSolver:  Solving for Uy, Initial residual = 0.0767575, Final residual = 3.94708e-05, No Iterations 2
smoothSolver:  Solving for Uz, Initial residual = 0.229081, Final residual = 8.13757e-05, No Iterations 2
GAMG:  Solving for p, Initial residual = 0.180095, Final residual = 0.0156767, No Iterations 2
GAMG:  Solving for p, Initial residual = 0.241063, Final residual = 0.0168752, No Iterations 1
GAMG:  Solving for p, Initial residual = 0.0903106, Final residual = 0.00438974, No Iterations 2
GAMG:  Solving for p, Initial residual = 0.0645637, Final residual = 0.00461524, No Iterations 1
GAMG:  Solving for p, Initial residual = 0.0288, Final residual = 0.00136444, No Iterations 2
time step continuity errors : sum local = 1.50027, global = -0.284706, cumulative = 0.504215
ExecutionTime = 1.35 s  ClockTime = 1 s

Time = 14

smoothSolver:  Solving for Ux, Initial residual = 0.0703345, Final residual = 3.58179e-05, No Iterations 2
smoothSolver:  Solving for Uy, Initial residual = 0.0696376, Final residual = 3.60242e-05, No Iterations 2
smoothSolver:  Solving for Uz, Initial residual = 0.110035, Final residual = 4.68675e-05, No Iterations 2
GAMG:  Solving for p, Initial residual = 0.262392, Final residual = 0.01225, No Iterations 3
GAMG:  Solving for p, Initial residual = 0.202683, Final residual = 0.0139749, No Iterations 1
GAMG:  Solving for p, Initial residual = 0.0686088, Final residual = 0.00289128, No Iterations 2
GAMG:  Solving for p, Initial residual = 0.0468624, Final residual = 0.00344745, No Iterations 1
GAMG:  Solving for p, Initial residual = 0.0220948, Final residual = 0.00105304, No Iterations 2
time step continuity errors : sum local = 1.4533, global = -0.28466, cumulative = 0.219555
ExecutionTime = 1.44 s  ClockTime = 1 s

Time = 15

smoothSolver:  Solving for Ux, Initial residual = 0.0661028, Final residual = 3.38181e-05, No Iterations 2
smoothSolver:  Solving for Uy, Initial residual = 0.0654158, Final residual = 3.41466e-05, No Iterations 2
smoothSolver:  Solving for Uz, Initial residual = 0.0691071, Final residual = 3.39182e-05, No Iterations 2
GAMG:  Solving for p, Initial residual = 0.366092, Final residual = 0.0336377, No Iterations 2
GAMG:  Solving for p, Initial residual = 0.165299, Final residual = 0.01188, No Iterations 1
GAMG:  Solving for p, Initial residual = 0.0590706, Final residual = 0.002933, No Iterations 2
GAMG:  Solving for p, Initial residual = 0.0450568, Final residual = 0.00332023, No Iterations 1
GAMG:  Solving for p, Initial residual = 0.0212448, Final residual = 0.00101755, No Iterations 2
time step continuity errors : sum local = 1.31935, global = -0.252167, cumulative = -0.032612
ExecutionTime = 1.53 s  ClockTime = 1 s

Time = 16

smoothSolver:  Solving for Ux, Initial residual = 0.0618148, Final residual = 3.16895e-05, No Iterations 2
smoothSolver:  Solving for Uy, Initial residual = 0.0618418, Final residual = 3.19529e-05, No Iterations 2
smoothSolver:  Solving for Uz, Initial residual = 0.134362, Final residual = 4.87611e-05, No Iterations 2
GAMG:  Solving for p, Initial residual = 0.211128, Final residual = 0.0133351, No Iterations 2
GAMG:  Solving for p, Initial residual = 0.113885, Final residual = 0.00855588, No Iterations 1
GAMG:  Solving for p, Initial residual = 0.0454787, Final residual = 0.00231858, No Iterations 2
GAMG:  Solving for p, Initial residual = 0.0365971, Final residual = 0.00276655, No Iterations 1
GAMG:  Solving for p, Initial residual = 0.0182174, Final residual = 0.000874638, No Iterations 2
time step continuity errors : sum local = 0.87349, global = -0.167655, cumulative = -0.200267
ExecutionTime = 1.62 s  ClockTime = 2 s

Time = 17

smoothSolver:  Solving for Ux, Initial residual = 0.0548891, Final residual = 2.84316e-05, No Iterations 2
smoothSolver:  Solving for Uy, Initial residual = 0.0556723, Final residual = 2.92365e-05, No Iterations 2
smoothSolver:  Solving for Uz, Initial residual = 0.176248, Final residual = 6.02504e-05, No Iterations 2
GAMG:  Solving for p, Initial residual = 0.163015, Final residual = 0.00504636, No Iterations 2
GAMG:  Solving for p, Initial residual = 0.078003, Final residual = 0.00598951, No Iterations 1
GAMG:  Solving for p, Initial residual = 0.0326431, Final residual = 0.00137374, No Iterations 2
GAMG:  Solving for p, Initial residual = 0.0236735, Final residual = 0.00195202, No Iterations 1
GAMG:  Solving for p, Initial residual = 0.013186, Final residual = 0.000589898, No Iterations 2
time step continuity errors : sum local = 0.351736, global = -0.0542899, cumulative = -0.254557
ExecutionTime = 1.72 s  ClockTime = 2 s

Time = 18

smoothSolver:  Solving for Ux, Initial residual = 0.0466288, Final residual = 2.47405e-05, No Iterations 2
smoothSolver:  Solving for Uy, Initial residual = 0.0479784, Final residual = 2.53637e-05, No Iterations 2
smoothSolver:  Solving for Uz, Initial residual = 0.174927, Final residual = 5.84255e-05, No Iterations 2
GAMG:  Solving for p, Initial residual = 0.150792, Final residual = 0.0075058, No Iterations 2
GAMG:  Solving for p, Initial residual = 0.199109, Final residual = 0.0134759, No Iterations 1
GAMG:  Solving for p, Initial residual = 0.0780227, Final residual = 0.0034372, No Iterations 2
GAMG:  Solving for p, Initial residual = 0.0729966, Final residual = 0.00508334, No Iterations 1
GAMG:  Solving for p, Initial residual = 0.0323202, Final residual = 0.00141017, No Iterations 2
time step continuity errors : sum local = 0.324695, global = 0.05877, cumulative = -0.195787
ExecutionTime = 1.8 s  ClockTime = 2 s

Time = 19

smoothSolver:  Solving for Ux, Initial residual = 0.040447, Final residual = 2.1594e-05, No Iterations 2
smoothSolver:  Solving for Uy, Initial residual = 0.0416874, Final residual = 2.2111e-05, No Iterations 2
smoothSolver:  Solving for Uz, Initial residual = 0.138038, Final residual = 4.68915e-05, No Iterations 2
GAMG:  Solving for p, Initial residual = 0.157357, Final residual = 0.0117785, No Iterations 2
GAMG:  Solving for p, Initial residual = 0.238998, Final residual = 0.0165576, No Iterations 1
GAMG:  Solving for p, Initial residual = 0.088858, Final residual = 0.0042563, No Iterations 2
GAMG:  Solving for p, Initial residual = 0.0644117, Final residual = 0.00454908, No Iterations 1
GAMG:  Solving for p, Initial residual = 0.0285289, Final residual = 0.00134431, No Iterations 2
time step continuity errors : sum local = 0.589584, global = 0.112657, cumulative = -0.0831298
ExecutionTime = 1.89 s  ClockTime = 2 s

Time = 20

smoothSolver:  Solving for Ux, Initial residual = 0.0388916, Final residual = 2.00398e-05, No Iterations 2
smoothSolver:  Solving for Uy, Initial residual = 0.0394695, Final residual = 2.04851e-05, No Iterations 2
smoothSolver:  Solving for Uz, Initial residual = 0.0834265, Final residual = 3.12451e-05, No Iterations 2
GAMG:  Solving for p, Initial residual = 0.191062, Final residual = 0.0178378, No Iterations 2
GAMG:  Solving for p, Initial residual = 0.207741, Final residual = 0.0146391, No Iterations 1
GAMG:  Solving for p, Initial residual = 0.0762722, Final residual = 0.00375185, No Iterations 2
GAMG:  Solving for p, Initial residual = 0.0560849, Final residual = 0.00404868, No Iterations 1
GAMG:  Solving for p, Initial residual = 0.025261, Final residual = 0.0012181, No Iterations 2
time step continuity errors : sum local = 0.728507, global = 0.141319, cumulative = 0.0581891
ExecutionTime = 1.98 s  ClockTime = 2 s

Time = 21

smoothSolver:  Solving for Ux, Initial residual = 0.0407129, Final residual = 2.01229e-05, No Iterations 2
smoothSolver:  Solving for Uy, Initial residual = 0.0406353, Final residual = 2.03165e-05, No Iterations 2
smoothSolver:  Solving for Uz, Initial residual = 0.0413479, Final residual = 1.94442e-05, No Iterations 2
GAMG:  Solving for p, Initial residual = 0.315709, Final residual = 0.030309, No Iterations 2
GAMG:  Solving for p, Initial residual = 0.176542, Final residual = 0.0127335, No Iterations 1
GAMG:  Solving for p, Initial residual = 0.0644373, Final residual = 0.00324691, No Iterations 2
GAMG:  Solving for p, Initial residual = 0.0489004, Final residual = 0.00360478, No Iterations 1
GAMG:  Solving for p, Initial residual = 0.0226541, Final residual = 0.00110582, No Iterations 2
time step continuity errors : sum local = 0.700845, global = 0.137306, cumulative = 0.195495
ExecutionTime = 2.07 s  ClockTime = 2 s

Time = 22

smoothSolver:  Solving for Ux, Initial residual = 0.0427627, Final residual = 2.03731e-05, No Iterations 2
smoothSolver:  Solving for Uy, Initial residual = 0.0424491, Final residual = 2.06716e-05, No Iterations 2
smoothSolver:  Solving for Uz, Initial residual = 0.0491337, Final residual = 2.10609e-05, No Iterations 2
GAMG:  Solving for p, Initial residual = 0.255861, Final residual = 0.0196063, No Iterations 2
GAMG:  Solving for p, Initial residual = 0.137906, Final residual = 0.0104382, No Iterations 1
GAMG:  Solving for p, Initial residual = 0.053077, Final residual = 0.00277913, No Iterations 2
GAMG:  Solving for p, Initial residual = 0.042152, Final residual = 0.00320547, No Iterations 1
GAMG:  Solving for p, Initial residual = 0.0203839, Final residual = 0.00101228, No Iterations 2
time step continuity errors : sum local = 0.553118, global = 0.108732, cumulative = 0.304226
ExecutionTime = 2.16 s  ClockTime = 2 s

Time = 23

smoothSolver:  Solving for Ux, Initial residual = 0.0427779, Final residual = 2.0102e-05, No Iterations 2
smoothSolver:  Solving for Uy, Initial residual = 0.0425674, Final residual = 2.04444e-05, No Iterations 2
smoothSolver:  Solving for Uz, Initial residual = 0.0770002, Final residual = 2.78134e-05, No Iterations 2
GAMG:  Solving for p, Initial residual = 0.185894, Final residual = 0.0089186, No Iterations 2
GAMG:  Solving for p, Initial residual = 0.0974968, Final residual = 0.00802996, No Iterations 1
GAMG:  Solving for p, Initial residual = 0.0419689, Final residual = 0.00223973, No Iterations 2
GAMG:  Solving for p, Initial residual = 0.0341819, Final residual = 0.0027465, No Iterations 1
GAMG:  Solving for p, Initial residual = 0.0177844, Final residual = 0.000898772, No Iterations 2
time step continuity errors : sum local = 0.340407, global = 0.0680286, cumulative = 0.372255
ExecutionTime = 2.25 s  ClockTime = 2 s

Time = 24

smoothSolver:  Solving for Ux, Initial residual = 0.0404055, Final residual = 1.9205e-05, No Iterations 2
smoothSolver:  Solving for Uy, Initial residual = 0.0405522, Final residual = 1.97041e-05, No Iterations 2
smoothSolver:  Solving for Uz, Initial residual = 0.0908114, Final residual = 3.1113e-05, No Iterations 2
GAMG:  Solving for p, Initial residual = 0.162206, Final residual = 0.00643644, No Iterations 2
GAMG:  Solving for p, Initial residual = 0.120895, Final residual = 0.00854952, No Iterations 1
GAMG:  Solving for p, Initial residual = 0.0447035, Final residual = 0.00187769, No Iterations 2
GAMG:  Solving for p, Initial residual = 0.0338988, Final residual = 0.00261433, No Iterations 1
GAMG:  Solving for p, Initial residual = 0.0167382, Final residual = 0.000712923, No Iterations 2
time step continuity errors : sum local = 0.144665, global = -0.0167531, cumulative = 0.355502
ExecutionTime = 2.34 s  ClockTime = 2 s

Time = 25

smoothSolver:  Solving for Ux, Initial residual = 0.037149, Final residual = 1.7835e-05, No Iterations 2
smoothSolver:  Solving for Uy, Initial residual = 0.0373908, Final residual = 1.82278e-05, No Iterations 2
smoothSolver:  Solving for Uz, Initial residual = 0.0829061, Final residual = 2.81908e-05, No Iterations 2
GAMG:  Solving for p, Initial residual = 0.158172, Final residual = 0.00953983, No Iterations 2
GAMG:  Solving for p, Initial residual = 0.232977, Final residual = 0.0159487, No Iterations 1
GAMG:  Solving for p, Initial residual = 0.0797002, Final residual = 0.00365636, No Iterations 2
GAMG:  Solving for p, Initial residual = 0.0558272, Final residual = 0.003903, No Iterations 1
GAMG:  Solving for p, Initial residual = 0.0241048, Final residual = 0.00109443, No Iterations 2
time step continuity errors : sum local = 0.195611, global = -0.036721, cumulative = 0.318781
ExecutionTime = 2.43 s  ClockTime = 2 s

Time = 26

smoothSolver:  Solving for Ux, Initial residual = 0.0344468, Final residual = 1.67043e-05, No Iterations 2
smoothSolver:  Solving for Uy, Initial residual = 0.0344008, Final residual = 1.69225e-05, No Iterations 2
smoothSolver:  Solving for Uz, Initial residual = 0.0596576, Final residual = 2.15456e-05, No Iterations 2
GAMG:  Solving for p, Initial residual = 0.173468, Final residual = 0.0136296, No Iterations 2
GAMG:  Solving for p, Initial residual = 0.197308, Final residual = 0.0136805, No Iterations 1
GAMG:  Solving for p, Initial residual = 0.069672, Final residual = 0.00337562, No Iterations 2
GAMG:  Solving for p, Initial residual = 0.0518534, Final residual = 0.00364717, No Iterations 1
GAMG:  Solving for p, Initial residual = 0.0229513, Final residual = 0.00108797, No Iterations 2
time step continuity errors : sum local = 0.289675, global = -0.0561928, cumulative = 0.262588
ExecutionTime = 2.51 s  ClockTime = 2 s

Time = 27

smoothSolver:  Solving for Ux, Initial residual = 0.0324867, Final residual = 1.56672e-05, No Iterations 2
smoothSolver:  Solving for Uy, Initial residual = 0.0321204, Final residual = 1.58566e-05, No Iterations 2
smoothSolver:  Solving for Uz, Initial residual = 0.0356909, Final residual = 1.48048e-05, No Iterations 2
GAMG:  Solving for p, Initial residual = 0.225567, Final residual = 0.0197436, No Iterations 2
GAMG:  Solving for p, Initial residual = 0.17116, Final residual = 0.0121126, No Iterations 1
GAMG:  Solving for p, Initial residual = 0.0614515, Final residual = 0.00305898, No Iterations 2
GAMG:  Solving for p, Initial residual = 0.0471017, Final residual = 0.00338621, No Iterations 1
GAMG:  Solving for p, Initial residual = 0.021387, Final residual = 0.00103051, No Iterations 2
time step continuity errors : sum local = 0.323681, global = -0.0641428, cumulative = 0.198445
ExecutionTime = 2.61 s  ClockTime = 3 s

Time = 28

smoothSolver:  Solving for Ux, Initial residual = 0.0306484, Final residual = 1.49942e-05, No Iterations 2
smoothSolver:  Solving for Uy, Initial residual = 0.0302993, Final residual = 1.50224e-05, No Iterations 2
smoothSolver:  Solving for Uz, Initial residual = 0.0287338, Final residual = 1.26478e-05, No Iterations 2
GAMG:  Solving for p, Initial residual = 0.274167, Final residual = 0.0218771, No Iterations 2
GAMG:  Solving for p, Initial residual = 0.141648, Final residual = 0.0103584, No Iterations 1
GAMG:  Solving for p, Initial residual = 0.0528245, Final residual = 0.00270043, No Iterations 2
GAMG:  Solving for p, Initial residual = 0.0420632, Final residual = 0.00309252, No Iterations 1
GAMG:  Solving for p, Initial residual = 0.0197718, Final residual = 0.000960508, No Iterations 2
time step continuity errors : sum local = 0.294534, global = -0.0591735, cumulative = 0.139272
ExecutionTime = 2.69 s  ClockTime = 3 s

Time = 29

smoothSolver:  Solving for Ux, Initial residual = 0.0284293, Final residual = 1.41097e-05, No Iterations 2
smoothSolver:  Solving for Uy, Initial residual = 0.0283937, Final residual = 1.42144e-05, No Iterations 2
smoothSolver:  Solving for Uz, Initial residual = 0.0376344, Final residual = 1.46204e-05, No Iterations 2
GAMG:  Solving for p, Initial residual = 0.192477, Final residual = 0.0117702, No Iterations 2
GAMG:  Solving for p, Initial residual = 0.106982, Final residual = 0.0084496, No Iterations 1
GAMG:  Solving for p, Initial residual = 0.0438239, Final residual = 0.00235058, No Iterations 2
GAMG:  Solving for p, Initial residual = 0.0365891, Final residual = 0.00278797, No Iterations 1
GAMG:  Solving for p, Initial residual = 0.0180202, Final residual = 0.000891895, No Iterations 2
time step continuity errors : sum local = 0.224824, global = -0.0453106, cumulative = 0.0939611
ExecutionTime = 2.78 s  ClockTime = 3 s

Time = 30

smoothSolver:  Solving for Ux, Initial residual = 0.0259135, Final residual = 1.29436e-05, No Iterations 2
smoothSolver:  Solving for Uy, Initial residual = 0.0263682, Final residual = 1.31824e-05, No Iterations 2
smoothSolver:  Solving for Uz, Initial residual = 0.0467394, Final residual = 1.67243e-05, No Iterations 2
GAMG:  Solving for p, Initial residual = 0.159211, Final residual = 0.00613738, No Iterations 2
GAMG:  Solving for p, Initial residual = 0.0878495, Final residual = 0.0070632, No Iterations 1
GAMG:  Solving for p, Initial residual = 0.0362071, Final residual = 0.00170157, No Iterations 2
GAMG:  Solving for p, Initial residual = 0.0280049, Final residual = 0.00231175, No Iterations 1
GAMG:  Solving for p, Initial residual = 0.0150231, Final residual = 0.000727373, No Iterations 2
time step continuity errors : sum local = 0.126448, global = -0.0238721, cumulative = 0.070089
ExecutionTime = 2.87 s  ClockTime = 3 s

Time = 31

smoothSolver:  Solving for Ux, Initial residual = 0.0238147, Final residual = 1.18805e-05, No Iterations 2
smoothSolver:  Solving for Uy, Initial residual = 0.0246057, Final residual = 1.23155e-05, No Iterations 2
smoothSolver:  Solving for Uz, Initial residual = 0.0481886, Final residual = 1.69359e-05, No Iterations 2
GAMG:  Solving for p, Initial residual = 0.146287, Final residual = 0.00650762, No Iterations 2
GAMG:  Solving for p, Initial residual = 0.132207, Final residual = 0.00916573, No Iterations 1
GAMG:  Solving for p, Initial residual = 0.0477055, Final residual = 0.00199945, No Iterations 2
GAMG:  Solving for p, Initial residual = 0.0387061, Final residual = 0.00279925, No Iterations 1
GAMG:  Solving for p, Initial residual = 0.0180712, Final residual = 0.00075978, No Iterations 2
time step continuity errors : sum local = 0.0740048, global = 0.0116093, cumulative = 0.0816983
ExecutionTime = 2.95 s  ClockTime = 3 s

Time = 32

smoothSolver:  Solving for Ux, Initial residual = 0.0228749, Final residual = 1.11807e-05, No Iterations 2
smoothSolver:  Solving for Uy, Initial residual = 0.0235822, Final residual = 1.1582e-05, No Iterations 2
smoothSolver:  Solving for Uz, Initial residual = 0.0415743, Final residual = 1.49981e-05, No Iterations 2
GAMG:  Solving for p, Initial residual = 0.145336, Final residual = 0.0087004, No Iterations 2
GAMG:  Solving for p, Initial residual = 0.176798, Final residual = 0.0121524, No Iterations 1
GAMG:  Solving for p, Initial residual = 0.060758, Final residual = 0.00280022, No Iterations 2
GAMG:  Solving for p, Initial residual = 0.044757, Final residual = 0.00311658, No Iterations 1
GAMG:  Solving for p, Initial residual = 0.019526, Final residual = 0.000886947, No Iterations 2
time step continuity errors : sum local = 0.101792, global = 0.0196332, cumulative = 0.101331
ExecutionTime = 3.05 s  ClockTime = 3 s

Time = 33

smoothSolver:  Solving for Ux, Initial residual = 0.0230807, Final residual = 1.08844e-05, No Iterations 2
smoothSolver:  Solving for Uy, Initial residual = 0.0234393, Final residual = 1.11584e-05, No Iterations 2
smoothSolver:  Solving for Uz, Initial residual = 0.0300805, Final residual = 1.17446e-05, No Iterations 2
GAMG:  Solving for p, Initial residual = 0.157519, Final residual = 0.0111467, No Iterations 2
GAMG:  Solving for p, Initial residual = 0.156999, Final residual = 0.0110201, No Iterations 1
GAMG:  Solving for p, Initial residual = 0.056514, Final residual = 0.00276942, No Iterations 2
GAMG:  Solving for p, Initial residual = 0.0440013, Final residual = 0.00312294, No Iterations 1
GAMG:  Solving for p, Initial residual = 0.0197448, Final residual = 0.000945909, No Iterations 2
time step continuity errors : sum local = 0.136033, global = 0.0269422, cumulative = 0.128274
ExecutionTime = 3.14 s  ClockTime = 3 s

Time = 34

smoothSolver:  Solving for Ux, Initial residual = 0.0236863, Final residual = 1.08049e-05, No Iterations 2
smoothSolver:  Solving for Uy, Initial residual = 0.0237454, Final residual = 1.09636e-05, No Iterations 2
smoothSolver:  Solving for Uz, Initial residual = 0.0209999, Final residual = 9.1701e-06, No Iterations 2
GAMG:  Solving for p, Initial residual = 0.192718, Final residual = 0.0139016, No Iterations 2
GAMG:  Solving for p, Initial residual = 0.137697, Final residual = 0.0099516, No Iterations 1
GAMG:  Solving for p, Initial residual = 0.0518385, Final residual = 0.00263516, No Iterations 2
GAMG:  Solving for p, Initial residual = 0.0415766, Final residual = 0.0030331, No Iterations 1
GAMG:  Solving for p, Initial residual = 0.0192498, Final residual = 0.000943635, No Iterations 2
time step continuity errors : sum local = 0.144853, global = 0.0291043, cumulative = 0.157378
ExecutionTime = 3.23 s  ClockTime = 3 s

Time = 35

smoothSolver:  Solving for Ux, Initial residual = 0.0239642, Final residual = 1.0678e-05, No Iterations 2
smoothSolver:  Solving for Uy, Initial residual = 0.0238438, Final residual = 1.07785e-05, No Iterations 2
smoothSolver:  Solving for Uz, Initial residual = 0.0194362, Final residual = 8.36535e-06, No Iterations 2
GAMG:  Solving for p, Initial residual = 0.212419, Final residual = 0.013416, No Iterations 2
GAMG:  Solving for p, Initial residual = 0.114133, Final residual = 0.00871312, No Iterations 1
GAMG:  Solving for p, Initial residual = 0.04561, Final residual = 0.00242287, No Iterations 2
GAMG:  Solving for p, Initial residual = 0.0380045, Final residual = 0.00285229, No Iterations 1
GAMG:  Solving for p, Initial residual = 0.0182173, Final residual = 0.000908431, No Iterations 2
time step continuity errors : sum local = 0.128881, global = 0.0260149, cumulative = 0.183393
ExecutionTime = 3.31 s  ClockTime = 3 s

Time = 36

smoothSolver:  Solving for Ux, Initial residual = 0.023482, Final residual = 1.0377e-05, No Iterations 2
smoothSolver:  Solving for Uy, Initial residual = 0.0233963, Final residual = 1.04815e-05, No Iterations 2
smoothSolver:  Solving for Uz, Initial residual = 0.022379, Final residual = 8.69861e-06, No Iterations 2
GAMG:  Solving for p, Initial residual = 0.174122, Final residual = 0.00852334, No Iterations 2
GAMG:  Solving for p, Initial residual = 0.0914998, Final residual = 0.00753876, No Iterations 1
GAMG:  Solving for p, Initial residual = 0.038922, Final residual = 0.00211235, No Iterations 2
GAMG:  Solving for p, Initial residual = 0.0329163, Final residual = 0.00259099, No Iterations 1
GAMG:  Solving for p, Initial residual = 0.0166494, Final residual = 0.000850292, No Iterations 2
time step continuity errors : sum local = 0.096929, global = 0.0195344, cumulative = 0.202927
ExecutionTime = 3.41 s  ClockTime = 3 s

Time = 37

smoothSolver:  Solving for Ux, Initial residual = 0.0224097, Final residual = 9.95896e-06, No Iterations 2
smoothSolver:  Solving for Uy, Initial residual = 0.0224136, Final residual = 1.00013e-05, No Iterations 2
smoothSolver:  Solving for Uz, Initial residual = 0.0247121, Final residual = 9.03766e-06, No Iterations 2
GAMG:  Solving for p, Initial residual = 0.15633, Final residual = 0.00566323, No Iterations 2
GAMG:  Solving for p, Initial residual = 0.0883177, Final residual = 0.0068945, No Iterations 1
GAMG:  Solving for p, Initial residual = 0.0348065, Final residual = 0.00159585, No Iterations 2
GAMG:  Solving for p, Initial residual = 0.0264828, Final residual = 0.0021964, No Iterations 1
GAMG:  Solving for p, Initial residual = 0.0139356, Final residual = 0.000664821, No Iterations 2
time step continuity errors : sum local = 0.0544256, global = 0.00609232, cumulative = 0.20902
ExecutionTime = 3.49 s  ClockTime = 3 s

Time = 38

smoothSolver:  Solving for Ux, Initial residual = 0.021137, Final residual = 9.40785e-06, No Iterations 2
smoothSolver:  Solving for Uy, Initial residual = 0.021197, Final residual = 9.4456e-06, No Iterations 2
smoothSolver:  Solving for Uz, Initial residual = 0.0244765, Final residual = 8.81404e-06, No Iterations 2
GAMG:  Solving for p, Initial residual = 0.148919, Final residual = 0.00637659, No Iterations 2
GAMG:  Solving for p, Initial residual = 0.126993, Final residual = 0.00882847, No Iterations 1
GAMG:  Solving for p, Initial residual = 0.0436582, Final residual = 0.00184332, No Iterations 2
GAMG:  Solving for p, Initial residual = 0.0311213, Final residual = 0.00222873, No Iterations 1
GAMG:  Solving for p, Initial residual = 0.0141934, Final residual = 0.000589536, No Iterations 2
time step continuity errors : sum local = 0.0375963, global = -0.00608617, cumulative = 0.202933
ExecutionTime = 3.59 s  ClockTime = 4 s

Time = 39

smoothSolver:  Solving for Ux, Initial residual = 0.0200065, Final residual = 8.87536e-06, No Iterations 2
smoothSolver:  Solving for Uy, Initial residual = 0.0200514, Final residual = 8.94552e-06, No Iterations 2
smoothSolver:  Solving for Uz, Initial residual = 0.0221396, Final residual = 8.21361e-06, No Iterations 2
GAMG:  Solving for p, Initial residual = 0.149698, Final residual = 0.00782902, No Iterations 2
GAMG:  Solving for p, Initial residual = 0.113112, Final residual = 0.00784123, No Iterations 1
GAMG:  Solving for p, Initial residual = 0.038612, Final residual = 0.00177889, No Iterations 2
GAMG:  Solving for p, Initial residual = 0.0296412, Final residual = 0.00207742, No Iterations 1
GAMG:  Solving for p, Initial residual = 0.0131052, Final residual = 0.000588797, No Iterations 2
time step continuity errors : sum local = 0.0484382, global = -0.00946623, cumulative = 0.193467
ExecutionTime = 3.67 s  ClockTime = 4 s

Time = 40

smoothSolver:  Solving for Ux, Initial residual = 0.0191727, Final residual = 8.44889e-06, No Iterations 2
smoothSolver:  Solving for Uy, Initial residual = 0.0191626, Final residual = 8.57056e-06, No Iterations 2
smoothSolver:  Solving for Uz, Initial residual = 0.0194024, Final residual = 7.49759e-06, No Iterations 2
GAMG:  Solving for p, Initial residual = 0.160311, Final residual = 0.00905613, No Iterations 2
GAMG:  Solving for p, Initial residual = 0.102055, Final residual = 0.00717914, No Iterations 1
GAMG:  Solving for p, Initial residual = 0.0366144, Final residual = 0.00179779, No Iterations 2
GAMG:  Solving for p, Initial residual = 0.0297716, Final residual = 0.00212075, No Iterations 1
GAMG:  Solving for p, Initial residual = 0.0135399, Final residual = 0.000643879, No Iterations 2
time step continuity errors : sum local = 0.0600657, global = -0.0120917, cumulative = 0.181375
ExecutionTime = 3.75 s  ClockTime = 4 s

Time = 41

smoothSolver:  Solving for Ux, Initial residual = 0.018516, Final residual = 8.13762e-06, No Iterations 2
smoothSolver:  Solving for Uy, Initial residual = 0.0185413, Final residual = 8.33874e-06, No Iterations 2
smoothSolver:  Solving for Uz, Initial residual = 0.0178708, Final residual = 7.09757e-06, No Iterations 2
GAMG:  Solving for p, Initial residual = 0.173314, Final residual = 0.00930742, No Iterations 2
GAMG:  Solving for p, Initial residual = 0.0879498, Final residual = 0.00638587, No Iterations 1
GAMG:  Solving for p, Initial residual = 0.0334398, Final residual = 0.00170849, No Iterations 2
GAMG:  Solving for p, Initial residual = 0.028201, Final residual = 0.00206448, No Iterations 1
GAMG:  Solving for p, Initial residual = 0.0132326, Final residual = 0.000646033, No Iterations 2
time step continuity errors : sum local = 0.0612094, global = -0.0124838, cumulative = 0.168892
ExecutionTime = 3.85 s  ClockTime = 4 s

Time = 42

smoothSolver:  Solving for Ux, Initial residual = 0.0179238, Final residual = 7.86175e-06, No Iterations 2
smoothSolver:  Solving for Uy, Initial residual = 0.0180723, Final residual = 8.13975e-06, No Iterations 2
smoothSolver:  Solving for Uz, Initial residual = 0.0177105, Final residual = 7.02207e-06, No Iterations 2
GAMG:  Solving for p, Initial residual = 0.14475, Final residual = 0.00667425, No Iterations 2
GAMG:  Solving for p, Initial residual = 0.0715076, Final residual = 0.00547277, No Iterations 1
GAMG:  Solving for p, Initial residual = 0.0289501, Final residual = 0.00153262, No Iterations 2
GAMG:  Solving for p, Initial residual = 0.0251981, Final residual = 0.00190255, No Iterations 1
GAMG:  Solving for p, Initial residual = 0.0122222, Final residual = 0.000611817, No Iterations 2
time step continuity errors : sum local = 0.0532702, global = -0.0109423, cumulative = 0.157949
ExecutionTime = 3.93 s  ClockTime = 4 s

Time = 43

smoothSolver:  Solving for Ux, Initial residual = 0.0173554, Final residual = 7.62901e-06, No Iterations 2
smoothSolver:  Solving for Uy, Initial residual = 0.0176572, Final residual = 7.92009e-06, No Iterations 2
smoothSolver:  Solving for Uz, Initial residual = 0.0180479, Final residual = 7.03659e-06, No Iterations 2
GAMG:  Solving for p, Initial residual = 0.12882, Final residual = 0.00453901, No Iterations 2
GAMG:  Solving for p, Initial residual = 0.0595369, Final residual = 0.00464701, No Iterations 1
GAMG:  Solving for p, Initial residual = 0.0242703, Final residual = 0.00119852, No Iterations 2
GAMG:  Solving for p, Initial residual = 0.0201008, Final residual = 0.00158992, No Iterations 1
GAMG:  Solving for p, Initial residual = 0.0103359, Final residual = 0.000519922, No Iterations 2
time step continuity errors : sum local = 0.0383579, global = -0.00779285, cumulative = 0.150157
ExecutionTime = 4.03 s  ClockTime = 4 s

Time = 44

smoothSolver:  Solving for Ux, Initial residual = 0.0169105, Final residual = 7.38547e-06, No Iterations 2
smoothSolver:  Solving for Uy, Initial residual = 0.0173199, Final residual = 7.73775e-06, No Iterations 2
smoothSolver:  Solving for Uz, Initial residual = 0.0179243, Final residual = 6.95616e-06, No Iterations 2
GAMG:  Solving for p, Initial residual = 0.120451, Final residual = 0.0115277, No Iterations 1
GAMG:  Solving for p, Initial residual = 0.0489556, Final residual = 0.00204515, No Iterations 2
GAMG:  Solving for p, Initial residual = 0.033475, Final residual = 0.00246867, No Iterations 1
GAMG:  Solving for p, Initial residual = 0.0147426, Final residual = 0.000644334, No Iterations 2
GAMG:  Solving for p, Initial residual = 0.0112665, Final residual = 0.000904109, No Iterations 1
time step continuity errors : sum local = 0.0538409, global = 2.71756e-05, cumulative = 0.150184
ExecutionTime = 4.1 s  ClockTime = 4 s

Time = 45

smoothSolver:  Solving for Ux, Initial residual = 0.0166759, Final residual = 7.19332e-06, No Iterations 2
smoothSolver:  Solving for Uy, Initial residual = 0.0171088, Final residual = 7.5101e-06, No Iterations 2
smoothSolver:  Solving for Uz, Initial residual = 0.0170271, Final residual = 6.62188e-06, No Iterations 2
GAMG:  Solving for p, Initial residual = 0.116673, Final residual = 0.0109771, No Iterations 1
GAMG:  Solving for p, Initial residual = 0.0555747, Final residual = 0.0024624, No Iterations 2
GAMG:  Solving for p, Initial residual = 0.0434236, Final residual = 0.00294622, No Iterations 1
GAMG:  Solving for p, Initial residual = 0.0174272, Final residual = 0.000718767, No Iterations 2
GAMG:  Solving for p, Initial residual = 0.0136206, Final residual = 0.000964011, No Iterations 1
time step continuity errors : sum local = 0.0483577, global = 0.0134396, cumulative = 0.163623
ExecutionTime = 4.2 s  ClockTime = 4 s

Time = 46

smoothSolver:  Solving for Ux, Initial residual = 0.0166733, Final residual = 7.06401e-06, No Iterations 2
smoothSolver:  Solving for Uy, Initial residual = 0.0170529, Final residual = 7.36519e-06, No Iterations 2
smoothSolver:  Solving for Uz, Initial residual = 0.0157287, Final residual = 6.19324e-06, No Iterations 2
GAMG:  Solving for p, Initial residual = 0.116862, Final residual = 0.0116466, No Iterations 1
GAMG:  Solving for p, Initial residual = 0.0646728, Final residual = 0.00315853, No Iterations 2
GAMG:  Solving for p, Initial residual = 0.0426416, Final residual = 0.00292927, No Iterations 1
GAMG:  Solving for p, Initial residual = 0.0175254, Final residual = 0.000793974, No Iterations 2
GAMG:  Solving for p, Initial residual = 0.0147152, Final residual = 0.0010287, No Iterations 1
time step continuity errors : sum local = 0.0582728, global = 0.0207374, cumulative = 0.184361
ExecutionTime = 4.28 s  ClockTime = 4 s

Time = 47

smoothSolver:  Solving for Ux, Initial residual = 0.0167756, Final residual = 6.96856e-06, No Iterations 2
smoothSolver:  Solving for Uy, Initial residual = 0.0170457, Final residual = 7.26117e-06, No Iterations 2
smoothSolver:  Solving for Uz, Initial residual = 0.0146447, Final residual = 5.78946e-06, No Iterations 2
GAMG:  Solving for p, Initial residual = 0.120854, Final residual = 0.0120502, No Iterations 1
GAMG:  Solving for p, Initial residual = 0.0612272, Final residual = 0.00313168, No Iterations 2
GAMG:  Solving for p, Initial residual = 0.0409519, Final residual = 0.00289047, No Iterations 1
GAMG:  Solving for p, Initial residual = 0.017768, Final residual = 0.000851937, No Iterations 2
GAMG:  Solving for p, Initial residual = 0.015296, Final residual = 0.00109796, No Iterations 1
time step continuity errors : sum local = 0.0653033, global = 0.0240249, cumulative = 0.208386
ExecutionTime = 4.36 s  ClockTime = 4 s

Time = 48

smoothSolver:  Solving for Ux, Initial residual = 0.0168008, Final residual = 6.89256e-06, No Iterations 2
smoothSolver:  Solving for Uy, Initial residual = 0.0169921, Final residual = 7.17406e-06, No Iterations 2
smoothSolver:  Solving for Uz, Initial residual = 0.0141595, Final residual = 5.56811e-06, No Iterations 2
GAMG:  Solving for p, Initial residual = 0.127699, Final residual = 0.0117503, No Iterations 1
GAMG:  Solving for p, Initial residual = 0.0535897, Final residual = 0.0027722, No Iterations 2
GAMG:  Solving for p, Initial residual = 0.0376734, Final residual = 0.00275363, No Iterations 1
GAMG:  Solving for p, Initial residual = 0.0171024, Final residual = 0.000845398, No Iterations 2
GAMG:  Solving for p, Initial residual = 0.0147954, Final residual = 0.00109634, No Iterations 1
time step continuity errors : sum local = 0.0641839, global = 0.0234069, cumulative = 0.231792
ExecutionTime = 4.45 s  ClockTime = 4 s

Time = 49

smoothSolver:  Solving for Ux, Initial residual = 0.0166251, Final residual = 6.81429e-06, No Iterations 2
smoothSolver:  Solving for Uy, Initial residual = 0.0168065, Final residual = 7.08107e-06, No Iterations 2
smoothSolver:  Solving for Uz, Initial residual = 0.0142021, Final residual = 5.4811e-06, No Iterations 2
GAMG:  Solving for p, Initial residual = 0.128857, Final residual = 0.0109134, No Iterations 1
GAMG:  Solving for p, Initial residual = 0.0458538, Final residual = 0.00229188, No Iterations 2
GAMG:  Solving for p, Initial residual = 0.0329667, Final residual = 0.00250717, No Iterations 1
GAMG:  Solving for p, Initial residual = 0.0155553, Final residual = 0.000783266, No Iterations 2
GAMG:  Solving for p, Initial residual = 0.0134823, Final residual = 0.00103695, No Iterations 1
time step continuity errors : sum local = 0.0564729, global = 0.0196854, cumulative = 0.251478
ExecutionTime = 4.53 s  ClockTime = 4 s

Time = 50

smoothSolver:  Solving for Ux, Initial residual = 0.0162577, Final residual = 6.66548e-06, No Iterations 2
smoothSolver:  Solving for Uy, Initial residual = 0.0164731, Final residual = 6.93542e-06, No Iterations 2
smoothSolver:  Solving for Uz, Initial residual = 0.0144309, Final residual = 5.48006e-06, No Iterations 2
GAMG:  Solving for p, Initial residual = 0.121368, Final residual = 0.010355, No Iterations 1
GAMG:  Solving for p, Initial residual = 0.0414945, Final residual = 0.00174672, No Iterations 2
GAMG:  Solving for p, Initial residual = 0.0272559, Final residual = 0.00214951, No Iterations 1
GAMG:  Solving for p, Initial residual = 0.0132157, Final residual = 0.000628299, No Iterations 2
GAMG:  Solving for p, Initial residual = 0.0109194, Final residual = 0.000878445, No Iterations 1
time step continuity errors : sum local = 0.0428278, global = 0.0121108, cumulative = 0.263589
ExecutionTime = 4.61 s  ClockTime = 5 s

Time = 51

smoothSolver:  Solving for Ux, Initial residual = 0.0157836, Final residual = 6.49871e-06, No Iterations 2
smoothSolver:  Solving for Uy, Initial residual = 0.0160585, Final residual = 6.76952e-06, No Iterations 2
smoothSolver:  Solving for Uz, Initial residual = 0.0145607, Final residual = 5.44867e-06, No Iterations 2
GAMG:  Solving for p, Initial residual = 0.116499, Final residual = 0.0094278, No Iterations 1
GAMG:  Solving for p, Initial residual = 0.0400487, Final residual = 0.00158422, No Iterations 2
GAMG:  Solving for p, Initial residual = 0.0260615, Final residual = 0.00192313, No Iterations 1
GAMG:  Solving for p, Initial residual = 0.0116678, Final residual = 0.000495065, No Iterations 2
GAMG:  Solving for p, Initial residual = 0.00883151, Final residual = 0.000706525, No Iterations 1
time step continuity errors : sum local = 0.0308849, global = 0.000147381, cumulative = 0.263736
ExecutionTime = 4.7 s  ClockTime = 5 s

Time = 52

smoothSolver:  Solving for Ux, Initial residual = 0.015325, Final residual = 6.34733e-06, No Iterations 2
smoothSolver:  Solving for Uy, Initial residual = 0.0156346, Final residual = 6.59452e-06, No Iterations 2
smoothSolver:  Solving for Uz, Initial residual = 0.0145053, Final residual = 5.40765e-06, No Iterations 2
GAMG:  Solving for p, Initial residual = 0.113767, Final residual = 0.0086607, No Iterations 1
GAMG:  Solving for p, Initial residual = 0.0397968, Final residual = 0.00162354, No Iterations 2
GAMG:  Solving for p, Initial residual = 0.025146, Final residual = 0.00171234, No Iterations 1
GAMG:  Solving for p, Initial residual = 0.0102904, Final residual = 0.000405713, No Iterations 2
GAMG:  Solving for p, Initial residual = 0.00778587, Final residual = 0.000561742, No Iterations 1
time step continuity errors : sum local = 0.0262982, global = -0.00638615, cumulative = 0.25735
ExecutionTime = 4.78 s  ClockTime = 5 s

Time = 53

smoothSolver:  Solving for Ux, Initial residual = 0.0149473, Final residual = 6.23009e-06, No Iterations 2
smoothSolver:  Solving for Uy, Initial residual = 0.0152616, Final residual = 6.47259e-06, No Iterations 2
smoothSolver:  Solving for Uz, Initial residual = 0.0142952, Final residual = 5.34837e-06, No Iterations 2
GAMG:  Solving for p, Initial residual = 0.112988, Final residual = 0.00842182, No Iterations 1
GAMG:  Solving for p, Initial residual = 0.0370889, Final residual = 0.00164475, No Iterations 2
GAMG:  Solving for p, Initial residual = 0.0243495, Final residual = 0.00165474, No Iterations 1
GAMG:  Solving for p, Initial residual = 0.00998908, Final residual = 0.000426686, No Iterations 2
GAMG:  Solving for p, Initial residual = 0.00811175, Final residual = 0.000570808, No Iterations 1
time step continuity errors : sum local = 0.0283837, global = -0.00974998, cumulative = 0.2476
ExecutionTime = 4.87 s  ClockTime = 5 s

Time = 54

smoothSolver:  Solving for Ux, Initial residual = 0.0146706, Final residual = 6.13559e-06, No Iterations 2
smoothSolver:  Solving for Uy, Initial residual = 0.0149607, Final residual = 6.3332e-06, No Iterations 2
smoothSolver:  Solving for Uz, Initial residual = 0.0140067, Final residual = 5.26322e-06, No Iterations 2
GAMG:  Solving for p, Initial residual = 0.10989, Final residual = 0.00800504, No Iterations 1
GAMG:  Solving for p, Initial residual = 0.0338267, Final residual = 0.00157347, No Iterations 2
GAMG:  Solving for p, Initial residual = 0.0232345, Final residual = 0.00162053, No Iterations 1
GAMG:  Solving for p, Initial residual = 0.00994989, Final residual = 0.000456782, No Iterations 2
GAMG:  Solving for p, Initial residual = 0.00840953, Final residual = 0.000604567, No Iterations 1
time step continuity errors : sum local = 0.0307715, global = -0.0112589, cumulative = 0.236341
ExecutionTime = 4.95 s  ClockTime = 5 s

Time = 55

smoothSolver:  Solving for Ux, Initial residual = 0.0144504, Final residual = 6.06617e-06, No Iterations 2
smoothSolver:  Solving for Uy, Initial residual = 0.0147314, Final residual = 6.24764e-06, No Iterations 2
smoothSolver:  Solving for Uz, Initial residual = 0.0137023, Final residual = 5.19422e-06, No Iterations 2
GAMG:  Solving for p, Initial residual = 0.103294, Final residual = 0.00729594, No Iterations 1
GAMG:  Solving for p, Initial residual = 0.0305856, Final residual = 0.00140969, No Iterations 2
GAMG:  Solving for p, Initial residual = 0.0210785, Final residual = 0.00152746, No Iterations 1
GAMG:  Solving for p, Initial residual = 0.00944032, Final residual = 0.000451972, No Iterations 2
GAMG:  Solving for p, Initial residual = 0.00808036, Final residual = 0.000601339, No Iterations 1
time step continuity errors : sum local = 0.0302668, global = -0.0110024, cumulative = 0.225339
ExecutionTime = 5.04 s  ClockTime = 5 s

Time = 56

smoothSolver:  Solving for Ux, Initial residual = 0.0142743, Final residual = 5.9723e-06, No Iterations 2
smoothSolver:  Solving for Uy, Initial residual = 0.014553, Final residual = 6.1152e-06, No Iterations 2
smoothSolver:  Solving for Uz, Initial residual = 0.0134128, Final residual = 5.10396e-06, No Iterations 2
GAMG:  Solving for p, Initial residual = 0.0976954, Final residual = 0.0068813, No Iterations 1
GAMG:  Solving for p, Initial residual = 0.0281629, Final residual = 0.00116037, No Iterations 2
GAMG:  Solving for p, Initial residual = 0.0179941, Final residual = 0.0013406, No Iterations 1
GAMG:  Solving for p, Initial residual = 0.00838567, Final residual = 0.000403648, No Iterations 2
GAMG:  Solving for p, Initial residual = 0.00711093, Final residual = 0.000547325, No Iterations 1
time step continuity errors : sum local = 0.0264756, global = -0.00905398, cumulative = 0.216285
ExecutionTime = 5.13 s  ClockTime = 5 s

Time = 57

smoothSolver:  Solving for Ux, Initial residual = 0.0141271, Final residual = 5.89878e-06, No Iterations 2
smoothSolver:  Solving for Uy, Initial residual = 0.0144132, Final residual = 6.02283e-06, No Iterations 2
smoothSolver:  Solving for Uz, Initial residual = 0.0131402, Final residual = 5.01751e-06, No Iterations 2
GAMG:  Solving for p, Initial residual = 0.0937605, Final residual = 0.00652113, No Iterations 1
GAMG:  Solving for p, Initial residual = 0.0267602, Final residual = 0.00263583, No Iterations 1
GAMG:  Solving for p, Initial residual = 0.0130156, Final residual = 0.000566727, No Iterations 2
GAMG:  Solving for p, Initial residual = 0.00951174, Final residual = 0.000732856, No Iterations 1
GAMG:  Solving for p, Initial residual = 0.00482596, Final residual = 0.000223331, No Iterations 2
time step continuity errors : sum local = 0.0101941, global = -0.00179126, cumulative = 0.214493
ExecutionTime = 5.21 s  ClockTime = 5 s

Time = 58

smoothSolver:  Solving for Ux, Initial residual = 0.0140256, Final residual = 5.81071e-06, No Iterations 2
smoothSolver:  Solving for Uy, Initial residual = 0.0142965, Final residual = 5.95292e-06, No Iterations 2
smoothSolver:  Solving for Uz, Initial residual = 0.0128844, Final residual = 4.935e-06, No Iterations 2
GAMG:  Solving for p, Initial residual = 0.0910244, Final residual = 0.0060748, No Iterations 1
GAMG:  Solving for p, Initial residual = 0.0258653, Final residual = 0.00240963, No Iterations 1
GAMG:  Solving for p, Initial residual = 0.0122975, Final residual = 0.000505998, No Iterations 2
GAMG:  Solving for p, Initial residual = 0.00881003, Final residual = 0.000626837, No Iterations 1
GAMG:  Solving for p, Initial residual = 0.00416014, Final residual = 0.000172866, No Iterations 2
time step continuity errors : sum local = 0.0074763, global = 0.000491582, cumulative = 0.214985
ExecutionTime = 5.3 s  ClockTime = 5 s

Time = 59

smoothSolver:  Solving for Ux, Initial residual = 0.0139652, Final residual = 5.73138e-06, No Iterations 2
smoothSolver:  Solving for Uy, Initial residual = 0.0142176, Final residual = 5.8957e-06, No Iterations 2
smoothSolver:  Solving for Uz, Initial residual = 0.0126483, Final residual = 4.83938e-06, No Iterations 2
GAMG:  Solving for p, Initial residual = 0.089227, Final residual = 0.00572341, No Iterations 1
GAMG:  Solving for p, Initial residual = 0.0253991, Final residual = 0.00231436, No Iterations 1
GAMG:  Solving for p, Initial residual = 0.0127785, Final residual = 0.00125345, No Iterations 1
GAMG:  Solving for p, Initial residual = 0.00763997, Final residual = 0.00076012, No Iterations 1
GAMG:  Solving for p, Initial residual = 0.00482612, Final residual = 0.000201404, No Iterations 2
time step continuity errors : sum local = 0.00829836, global = 0.00118092, cumulative = 0.216166
ExecutionTime = 5.37 s  ClockTime = 5 s

Time = 60

smoothSolver:  Solving for Ux, Initial residual = 0.0139225, Final residual = 5.66396e-06, No Iterations 2
smoothSolver:  Solving for Uy, Initial residual = 0.0141576, Final residual = 5.82658e-06, No Iterations 2
smoothSolver:  Solving for Uz, Initial residual = 0.0124492, Final residual = 4.74592e-06, No Iterations 2
GAMG:  Solving for p, Initial residual = 0.088263, Final residual = 0.00553435, No Iterations 1
GAMG:  Solving for p, Initial residual = 0.0250787, Final residual = 0.00236999, No Iterations 1
GAMG:  Solving for p, Initial residual = 0.0133078, Final residual = 0.00132822, No Iterations 1
GAMG:  Solving for p, Initial residual = 0.00815456, Final residual = 0.000351612, No Iterations 2
GAMG:  Solving for p, Initial residual = 0.00648117, Final residual = 0.000444469, No Iterations 1
time step continuity errors : sum local = 0.0178049, global = 0.00610073, cumulative = 0.222267
ExecutionTime = 5.45 s  ClockTime = 5 s

Time = 61

smoothSolver:  Solving for Ux, Initial residual = 0.0138679, Final residual = 5.62171e-06, No Iterations 2
smoothSolver:  Solving for Uy, Initial residual = 0.0140857, Final residual = 5.79426e-06, No Iterations 2
smoothSolver:  Solving for Uz, Initial residual = 0.0123104, Final residual = 4.67681e-06, No Iterations 2
GAMG:  Solving for p, Initial residual = 0.0878162, Final residual = 0.00549089, No Iterations 1
GAMG:  Solving for p, Initial residual = 0.0246675, Final residual = 0.00241741, No Iterations 1
GAMG:  Solving for p, Initial residual = 0.013348, Final residual = 0.000598987, No Iterations 2
GAMG:  Solving for p, Initial residual = 0.01021, Final residual = 0.000725119, No Iterations 1
GAMG:  Solving for p, Initial residual = 0.00482885, Final residual = 0.000220038, No Iterations 2
time step continuity errors : sum local = 0.00874638, global = 0.0016425, cumulative = 0.223909
ExecutionTime = 5.54 s  ClockTime = 6 s

Time = 62

smoothSolver:  Solving for Ux, Initial residual = 0.0137784, Final residual = 5.57459e-06, No Iterations 2
smoothSolver:  Solving for Uy, Initial residual = 0.0139787, Final residual = 5.71039e-06, No Iterations 2
smoothSolver:  Solving for Uz, Initial residual = 0.0122314, Final residual = 4.6207e-06, No Iterations 2
GAMG:  Solving for p, Initial residual = 0.0875137, Final residual = 0.00548772, No Iterations 1
GAMG:  Solving for p, Initial residual = 0.0241193, Final residual = 0.00235115, No Iterations 1
GAMG:  Solving for p, Initial residual = 0.0126293, Final residual = 0.000575101, No Iterations 2
GAMG:  Solving for p, Initial residual = 0.00968935, Final residual = 0.000722363, No Iterations 1
GAMG:  Solving for p, Initial residual = 0.00477632, Final residual = 0.00022585, No Iterations 2
time step continuity errors : sum local = 0.00888411, global = 0.00170933, cumulative = 0.225618
ExecutionTime = 5.62 s  ClockTime = 6 s

Time = 63

smoothSolver:  Solving for Ux, Initial residual = 0.0136257, Final residual = 5.51814e-06, No Iterations 2
smoothSolver:  Solving for Uy, Initial residual = 0.013838, Final residual = 5.62037e-06, No Iterations 2
smoothSolver:  Solving for Uz, Initial residual = 0.0121837, Final residual = 4.5707e-06, No Iterations 2
GAMG:  Solving for p, Initial residual = 0.0867486, Final residual = 0.00543761, No Iterations 1
GAMG:  Solving for p, Initial residual = 0.023485, Final residual = 0.0022408, No Iterations 1
GAMG:  Solving for p, Initial residual = 0.0114376, Final residual = 0.000503852, No Iterations 2
GAMG:  Solving for p, Initial residual = 0.00858596, Final residual = 0.000664974, No Iterations 1
GAMG:  Solving for p, Initial residual = 0.00438245, Final residual = 0.000207335, No Iterations 2
time step continuity errors : sum local = 0.00807746, global = 0.0015415, cumulative = 0.22716
ExecutionTime = 5.71 s  ClockTime = 6 s

Time = 64

smoothSolver:  Solving for Ux, Initial residual = 0.0134415, Final residual = 5.44606e-06, No Iterations 2
smoothSolver:  Solving for Uy, Initial residual = 0.0136648, Final residual = 5.53393e-06, No Iterations 2
smoothSolver:  Solving for Uz, Initial residual = 0.0121376, Final residual = 4.53489e-06, No Iterations 2
GAMG:  Solving for p, Initial residual = 0.0855048, Final residual = 0.00523624, No Iterations 1
GAMG:  Solving for p, Initial residual = 0.0227776, Final residual = 0.00213144, No Iterations 1
GAMG:  Solving for p, Initial residual = 0.0103245, Final residual = 0.000436067, No Iterations 2
GAMG:  Solving for p, Initial residual = 0.00736885, Final residual = 0.00057594, No Iterations 1
GAMG:  Solving for p, Initial residual = 0.00378751, Final residual = 0.000169176, No Iterations 2
time step continuity errors : sum local = 0.00660289, global = 0.000959338, cumulative = 0.228119
ExecutionTime = 5.79 s  ClockTime = 6 s

Time = 65

smoothSolver:  Solving for Ux, Initial residual = 0.0132466, Final residual = 5.35503e-06, No Iterations 2
smoothSolver:  Solving for Uy, Initial residual = 0.0134725, Final residual = 5.44493e-06, No Iterations 2
smoothSolver:  Solving for Uz, Initial residual = 0.0120707, Final residual = 4.50056e-06, No Iterations 2
GAMG:  Solving for p, Initial residual = 0.0836768, Final residual = 0.00497009, No Iterations 1
GAMG:  Solving for p, Initial residual = 0.022007, Final residual = 0.00197627, No Iterations 1
GAMG:  Solving for p, Initial residual = 0.00966468, Final residual = 0.000391468, No Iterations 2
GAMG:  Solving for p, Initial residual = 0.00660443, Final residual = 0.000492919, No Iterations 1
GAMG:  Solving for p, Initial residual = 0.00328568, Final residual = 0.000134919, No Iterations 2
time step continuity errors : sum local = 0.00531779, global = -0.000225699, cumulative = 0.227894
ExecutionTime = 5.87 s  ClockTime = 6 s

Time = 66

smoothSolver:  Solving for Ux, Initial residual = 0.0130591, Final residual = 5.28383e-06, No Iterations 2
smoothSolver:  Solving for Uy, Initial residual = 0.0132983, Final residual = 5.35967e-06, No Iterations 2
smoothSolver:  Solving for Uz, Initial residual = 0.0119713, Final residual = 4.4608e-06, No Iterations 2
GAMG:  Solving for p, Initial residual = 0.0815176, Final residual = 0.00468754, No Iterations 1
GAMG:  Solving for p, Initial residual = 0.0211319, Final residual = 0.00181231, No Iterations 1
GAMG:  Solving for p, Initial residual = 0.00925416, Final residual = 0.000361148, No Iterations 2
GAMG:  Solving for p, Initial residual = 0.00625877, Final residual = 0.000434749, No Iterations 1
GAMG:  Solving for p, Initial residual = 0.00299004, Final residual = 0.000112811, No Iterations 2
time step continuity errors : sum local = 0.00449995, global = -0.000725994, cumulative = 0.227168
ExecutionTime = 5.96 s  ClockTime = 6 s

Time = 67

smoothSolver:  Solving for Ux, Initial residual = 0.0128883, Final residual = 5.20438e-06, No Iterations 2
smoothSolver:  Solving for Uy, Initial residual = 0.0131367, Final residual = 5.28066e-06, No Iterations 2
smoothSolver:  Solving for Uz, Initial residual = 0.0118375, Final residual = 4.40324e-06, No Iterations 2
GAMG:  Solving for p, Initial residual = 0.079264, Final residual = 0.00447143, No Iterations 1
GAMG:  Solving for p, Initial residual = 0.0203051, Final residual = 0.00170155, No Iterations 1
GAMG:  Solving for p, Initial residual = 0.00891037, Final residual = 0.000882792, No Iterations 1
GAMG:  Solving for p, Initial residual = 0.00521859, Final residual = 0.000218424, No Iterations 2
GAMG:  Solving for p, Initial residual = 0.00391531, Final residual = 0.000273017, No Iterations 1
time step continuity errors : sum local = 0.0109897, global = -0.00328789, cumulative = 0.22388
ExecutionTime = 6.03 s  ClockTime = 6 s

Time = 68

smoothSolver:  Solving for Ux, Initial residual = 0.0127454, Final residual = 5.16766e-06, No Iterations 2
smoothSolver:  Solving for Uy, Initial residual = 0.0130003, Final residual = 5.21918e-06, No Iterations 2
smoothSolver:  Solving for Uz, Initial residual = 0.0116802, Final residual = 4.36908e-06, No Iterations 2
GAMG:  Solving for p, Initial residual = 0.0768954, Final residual = 0.00429987, No Iterations 1
GAMG:  Solving for p, Initial residual = 0.0195405, Final residual = 0.00164162, No Iterations 1
GAMG:  Solving for p, Initial residual = 0.00855548, Final residual = 0.000353985, No Iterations 2
GAMG:  Solving for p, Initial residual = 0.00593315, Final residual = 0.000417444, No Iterations 1
GAMG:  Solving for p, Initial residual = 0.00288238, Final residual = 0.000121947, No Iterations 2
time step continuity errors : sum local = 0.00490606, global = -0.000993726, cumulative = 0.222886
ExecutionTime = 6.12 s  ClockTime = 6 s

Time = 69

smoothSolver:  Solving for Ux, Initial residual = 0.0126074, Final residual = 5.08084e-06, No Iterations 2
smoothSolver:  Solving for Uy, Initial residual = 0.0128748, Final residual = 5.14807e-06, No Iterations 2
smoothSolver:  Solving for Uz, Initial residual = 0.0115073, Final residual = 4.30872e-06, No Iterations 2
GAMG:  Solving for p, Initial residual = 0.0746802, Final residual = 0.0041731, No Iterations 1
GAMG:  Solving for p, Initial residual = 0.0190038, Final residual = 0.00159871, No Iterations 1
GAMG:  Solving for p, Initial residual = 0.00815282, Final residual = 0.000333108, No Iterations 2
GAMG:  Solving for p, Initial residual = 0.00557402, Final residual = 0.000405387, No Iterations 1
GAMG:  Solving for p, Initial residual = 0.00280217, Final residual = 0.000122277, No Iterations 2
time step continuity errors : sum local = 0.00488962, global = -0.00103562, cumulative = 0.22185
ExecutionTime = 6.2 s  ClockTime = 6 s

Time = 70

smoothSolver:  Solving for Ux, Initial residual = 0.012488, Final residual = 5.02742e-06, No Iterations 2
smoothSolver:  Solving for Uy, Initial residual = 0.0127653, Final residual = 5.10906e-06, No Iterations 2
smoothSolver:  Solving for Uz, Initial residual = 0.0113381, Final residual = 4.27415e-06, No Iterations 2
GAMG:  Solving for p, Initial residual = 0.0727515, Final residual = 0.00404331, No Iterations 1
GAMG:  Solving for p, Initial residual = 0.0186075, Final residual = 0.00156217, No Iterations 1
GAMG:  Solving for p, Initial residual = 0.00776849, Final residual = 0.000294852, No Iterations 2
GAMG:  Solving for p, Initial residual = 0.00507307, Final residual = 0.000374019, No Iterations 1
GAMG:  Solving for p, Initial residual = 0.00262895, Final residual = 0.00011163, No Iterations 2
time step continuity errors : sum local = 0.00441551, global = -0.000968542, cumulative = 0.220882
ExecutionTime = 6.29 s  ClockTime = 6 s

Time = 71

smoothSolver:  Solving for Ux, Initial residual = 0.0123646, Final residual = 4.95565e-06, No Iterations 2
smoothSolver:  Solving for Uy, Initial residual = 0.0126614, Final residual = 5.04216e-06, No Iterations 2
smoothSolver:  Solving for Uz, Initial residual = 0.0111763, Final residual = 4.21264e-06, No Iterations 2
GAMG:  Solving for p, Initial residual = 0.0712459, Final residual = 0.00393374, No Iterations 1
GAMG:  Solving for p, Initial residual = 0.0183168, Final residual = 0.00153152, No Iterations 1
GAMG:  Solving for p, Initial residual = 0.00752603, Final residual = 0.000262963, No Iterations 2
GAMG:  Solving for p, Initial residual = 0.00465318, Final residual = 0.000345402, No Iterations 1
GAMG:  Solving for p, Initial residual = 0.00245507, Final residual = 9.62122e-05, No Iterations 2
time step continuity errors : sum local = 0.00375633, global = -0.000623408, cumulative = 0.220258
ExecutionTime = 6.37 s  ClockTime = 6 s

Time = 72

smoothSolver:  Solving for Ux, Initial residual = 0.0122532, Final residual = 4.88636e-06, No Iterations 2
smoothSolver:  Solving for Uy, Initial residual = 0.0125657, Final residual = 5.00159e-06, No Iterations 2
smoothSolver:  Solving for Uz, Initial residual = 0.0110299, Final residual = 4.15344e-06, No Iterations 2
GAMG:  Solving for p, Initial residual = 0.0699897, Final residual = 0.00381475, No Iterations 1
GAMG:  Solving for p, Initial residual = 0.0180582, Final residual = 0.00147809, No Iterations 1
GAMG:  Solving for p, Initial residual = 0.00738609, Final residual = 0.000731783, No Iterations 1
GAMG:  Solving for p, Initial residual = 0.00404475, Final residual = 0.000161378, No Iterations 2
GAMG:  Solving for p, Initial residual = 0.00290038, Final residual = 0.000216184, No Iterations 1
time step continuity errors : sum local = 0.00832891, global = 0.000450638, cumulative = 0.220709
ExecutionTime = 6.45 s  ClockTime = 6 s

Time = 73

smoothSolver:  Solving for Ux, Initial residual = 0.0121555, Final residual = 4.82188e-06, No Iterations 2
smoothSolver:  Solving for Uy, Initial residual = 0.0124779, Final residual = 4.944e-06, No Iterations 2
smoothSolver:  Solving for Uz, Initial residual = 0.0109005, Final residual = 4.09108e-06, No Iterations 2
GAMG:  Solving for p, Initial residual = 0.0688837, Final residual = 0.00371101, No Iterations 1
GAMG:  Solving for p, Initial residual = 0.0177326, Final residual = 0.00143584, No Iterations 1
GAMG:  Solving for p, Initial residual = 0.00731465, Final residual = 0.000710533, No Iterations 1
GAMG:  Solving for p, Initial residual = 0.00406992, Final residual = 0.000159556, No Iterations 2
GAMG:  Solving for p, Initial residual = 0.00299051, Final residual = 0.000210879, No Iterations 1
time step continuity errors : sum local = 0.00801183, global = 0.00158411, cumulative = 0.222293
ExecutionTime = 6.54 s  ClockTime = 7 s

Time = 74

smoothSolver:  Solving for Ux, Initial residual = 0.0120459, Final residual = 4.77352e-06, No Iterations 2
smoothSolver:  Solving for Uy, Initial residual = 0.0123786, Final residual = 4.90735e-06, No Iterations 2
smoothSolver:  Solving for Uz, Initial residual = 0.0107756, Final residual = 4.04994e-06, No Iterations 2
GAMG:  Solving for p, Initial residual = 0.0678915, Final residual = 0.00362528, No Iterations 1
GAMG:  Solving for p, Initial residual = 0.0173634, Final residual = 0.00140693, No Iterations 1
GAMG:  Solving for p, Initial residual = 0.00724578, Final residual = 0.000707568, No Iterations 1
GAMG:  Solving for p, Initial residual = 0.00412754, Final residual = 0.000168519, No Iterations 2
GAMG:  Solving for p, Initial residual = 0.00314141, Final residual = 0.000222487, No Iterations 1
time step continuity errors : sum local = 0.00835311, global = 0.00216903, cumulative = 0.224462
ExecutionTime = 6.61 s  ClockTime = 7 s

Time = 75

smoothSolver:  Solving for Ux, Initial residual = 0.0119462, Final residual = 4.73583e-06, No Iterations 2
smoothSolver:  Solving for Uy, Initial residual = 0.0122813, Final residual = 4.86157e-06, No Iterations 2
smoothSolver:  Solving for Uz, Initial residual = 0.0106632, Final residual = 3.99657e-06, No Iterations 2
GAMG:  Solving for p, Initial residual = 0.0669182, Final residual = 0.0035778, No Iterations 1
GAMG:  Solving for p, Initial residual = 0.016968, Final residual = 0.00140072, No Iterations 1
GAMG:  Solving for p, Initial residual = 0.00714362, Final residual = 0.000268356, No Iterations 2
GAMG:  Solving for p, Initial residual = 0.00480525, Final residual = 0.000339665, No Iterations 1
GAMG:  Solving for p, Initial residual = 0.00245442, Final residual = 9.96599e-05, No Iterations 2
time step continuity errors : sum local = 0.00371333, global = 0.000727961, cumulative = 0.22519
ExecutionTime = 6.7 s  ClockTime = 7 s

Time = 76

smoothSolver:  Solving for Ux, Initial residual = 0.0118357, Final residual = 4.68493e-06, No Iterations 2
smoothSolver:  Solving for Uy, Initial residual = 0.0121816, Final residual = 4.80684e-06, No Iterations 2
smoothSolver:  Solving for Uz, Initial residual = 0.0105539, Final residual = 3.9673e-06, No Iterations 2
GAMG:  Solving for p, Initial residual = 0.0657677, Final residual = 0.00351919, No Iterations 1
GAMG:  Solving for p, Initial residual = 0.0165661, Final residual = 0.00138626, No Iterations 1
GAMG:  Solving for p, Initial residual = 0.00697304, Final residual = 0.000264589, No Iterations 2
GAMG:  Solving for p, Initial residual = 0.0046481, Final residual = 0.000339183, No Iterations 1
GAMG:  Solving for p, Initial residual = 0.0024281, Final residual = 0.000101665, No Iterations 2
time step continuity errors : sum local = 0.00376686, global = 0.0007539, cumulative = 0.225944
ExecutionTime = 6.79 s  ClockTime = 7 s

Time = 77

smoothSolver:  Solving for Ux, Initial residual = 0.0117194, Final residual = 4.62467e-06, No Iterations 2
smoothSolver:  Solving for Uy, Initial residual = 0.0120779, Final residual = 4.74468e-06, No Iterations 2
smoothSolver:  Solving for Uz, Initial residual = 0.0104434, Final residual = 3.91668e-06, No Iterations 2
GAMG:  Solving for p, Initial residual = 0.0646017, Final residual = 0.00345629, No Iterations 1
GAMG:  Solving for p, Initial residual = 0.0162663, Final residual = 0.00135961, No Iterations 1
GAMG:  Solving for p, Initial residual = 0.00682417, Final residual = 0.00025263, No Iterations 2
GAMG:  Solving for p, Initial residual = 0.00440132, Final residual = 0.000330085, No Iterations 1
GAMG:  Solving for p, Initial residual = 0.00235379, Final residual = 9.87484e-05, No Iterations 2
time step continuity errors : sum local = 0.0036473, global = 0.000727823, cumulative = 0.226672
ExecutionTime = 6.87 s  ClockTime = 7 s

Time = 78

smoothSolver:  Solving for Ux, Initial residual = 0.0116003, Final residual = 4.5615e-06, No Iterations 2
smoothSolver:  Solving for Uy, Initial residual = 0.0119655, Final residual = 4.69307e-06, No Iterations 2
smoothSolver:  Solving for Uz, Initial residual = 0.010326, Final residual = 3.86906e-06, No Iterations 2
GAMG:  Solving for p, Initial residual = 0.0633695, Final residual = 0.00338392, No Iterations 1
GAMG:  Solving for p, Initial residual = 0.0159699, Final residual = 0.00132347, No Iterations 1
GAMG:  Solving for p, Initial residual = 0.00664325, Final residual = 0.000231752, No Iterations 2
GAMG:  Solving for p, Initial residual = 0.00408596, Final residual = 0.000309798, No Iterations 1
GAMG:  Solving for p, Initial residual = 0.00221783, Final residual = 8.956e-05, No Iterations 2
time step continuity errors : sum local = 0.00330315, global = 0.000594467, cumulative = 0.227266
ExecutionTime = 6.96 s  ClockTime = 7 s

Time = 79

smoothSolver:  Solving for Ux, Initial residual = 0.0114739, Final residual = 4.47374e-06, No Iterations 2
smoothSolver:  Solving for Uy, Initial residual = 0.0118478, Final residual = 4.60445e-06, No Iterations 2
smoothSolver:  Solving for Uz, Initial residual = 0.0102037, Final residual = 3.80712e-06, No Iterations 2
GAMG:  Solving for p, Initial residual = 0.0620871, Final residual = 0.0032945, No Iterations 1
GAMG:  Solving for p, Initial residual = 0.0156863, Final residual = 0.00127066, No Iterations 1
GAMG:  Solving for p, Initial residual = 0.00647125, Final residual = 0.000638983, No Iterations 1
GAMG:  Solving for p, Initial residual = 0.00349993, Final residual = 0.000139172, No Iterations 2
GAMG:  Solving for p, Initial residual = 0.00249759, Final residual = 0.000194555, No Iterations 1
time step continuity errors : sum local = 0.00716854, global = 0.000682724, cumulative = 0.227949
ExecutionTime = 7.03 s  ClockTime = 7 s

Time = 80

smoothSolver:  Solving for Ux, Initial residual = 0.011347, Final residual = 4.40199e-06, No Iterations 2
smoothSolver:  Solving for Uy, Initial residual = 0.0117296, Final residual = 4.55177e-06, No Iterations 2
smoothSolver:  Solving for Uz, Initial residual = 0.0100727, Final residual = 3.74833e-06, No Iterations 2
GAMG:  Solving for p, Initial residual = 0.060817, Final residual = 0.00320168, No Iterations 1
GAMG:  Solving for p, Initial residual = 0.0153694, Final residual = 0.00122124, No Iterations 1
GAMG:  Solving for p, Initial residual = 0.00629537, Final residual = 0.000602802, No Iterations 1
GAMG:  Solving for p, Initial residual = 0.0033699, Final residual = 0.0001241, No Iterations 2
GAMG:  Solving for p, Initial residual = 0.00231306, Final residual = 0.000175479, No Iterations 1
time step continuity errors : sum local = 0.00646058, global = -0.000132187, cumulative = 0.227817
ExecutionTime = 7.12 s  ClockTime = 7 s

Time = 81

smoothSolver:  Solving for Ux, Initial residual = 0.011228, Final residual = 4.32328e-06, No Iterations 2
smoothSolver:  Solving for Uy, Initial residual = 0.0116069, Final residual = 4.47752e-06, No Iterations 2
smoothSolver:  Solving for Uz, Initial residual = 0.00993252, Final residual = 3.69526e-06, No Iterations 2
GAMG:  Solving for p, Initial residual = 0.0594834, Final residual = 0.00311662, No Iterations 1
GAMG:  Solving for p, Initial residual = 0.0150092, Final residual = 0.00117814, No Iterations 1
GAMG:  Solving for p, Initial residual = 0.00612016, Final residual = 0.000573693, No Iterations 1
GAMG:  Solving for p, Initial residual = 0.00325353, Final residual = 0.000111953, No Iterations 2
GAMG:  Solving for p, Initial residual = 0.00219226, Final residual = 0.000160643, No Iterations 1
time step continuity errors : sum local = 0.00590624, global = -0.000642883, cumulative = 0.227174
ExecutionTime = 7.19 s  ClockTime = 7 s

Time = 82

smoothSolver:  Solving for Ux, Initial residual = 0.0111116, Final residual = 4.25497e-06, No Iterations 2
smoothSolver:  Solving for Uy, Initial residual = 0.0114767, Final residual = 4.41263e-06, No Iterations 2
smoothSolver:  Solving for Uz, Initial residual = 0.00978993, Final residual = 3.64543e-06, No Iterations 2
GAMG:  Solving for p, Initial residual = 0.0581021, Final residual = 0.00304306, No Iterations 1
GAMG:  Solving for p, Initial residual = 0.014699, Final residual = 0.00115237, No Iterations 1
GAMG:  Solving for p, Initial residual = 0.00598299, Final residual = 0.000557801, No Iterations 1
GAMG:  Solving for p, Initial residual = 0.00317595, Final residual = 0.000106195, No Iterations 2
GAMG:  Solving for p, Initial residual = 0.00212165, Final residual = 0.000153131, No Iterations 1
time step continuity errors : sum local = 0.0056187, global = -0.000904747, cumulative = 0.226269
ExecutionTime = 7.27 s  ClockTime = 7 s

Time = 83

smoothSolver:  Solving for Ux, Initial residual = 0.0109991, Final residual = 4.19559e-06, No Iterations 2
smoothSolver:  Solving for Uy, Initial residual = 0.0113536, Final residual = 4.35695e-06, No Iterations 2
[...]
GAMG:  Solving for p, Initial residual = 0.000385003, Final residual = 3.24697e-05, No Iterations 1
GAMG:  Solving for p, Initial residual = 0.000241723, Final residual = 1.01596e-05, No Iterations 2
time step continuity errors : sum local = 0.000368474, global = 2.54157e-05, cumulative = 0.324511
ExecutionTime = 169.94 s  ClockTime = 170 s

Time = 1981

smoothSolver:  Solving for Ux, Initial residual = 0.000277259, Final residual = 1.65072e-07, No Iterations 2
smoothSolver:  Solving for Uy, Initial residual = 0.000280093, Final residual = 1.62693e-07, No Iterations 2
smoothSolver:  Solving for Uz, Initial residual = 9.7825e-05, Final residual = 5.65596e-08, No Iterations 2
GAMG:  Solving for p, Initial residual = 0.00276247, Final residual = 0.00021331, No Iterations 1
GAMG:  Solving for p, Initial residual = 0.00116504, Final residual = 0.000108981, No Iterations 1
GAMG:  Solving for p, Initial residual = 0.000600962, Final residual = 2.31393e-05, No Iterations 2
GAMG:  Solving for p, Initial residual = 0.000391402, Final residual = 3.28056e-05, No Iterations 1
GAMG:  Solving for p, Initial residual = 0.000244761, Final residual = 1.03951e-05, No Iterations 2
time step continuity errors : sum local = 0.000377037, global = 1.70112e-05, cumulative = 0.324528
ExecutionTime = 170.03 s  ClockTime = 170 s

Time = 1982

smoothSolver:  Solving for Ux, Initial residual = 0.000277202, Final residual = 1.61645e-07, No Iterations 2
smoothSolver:  Solving for Uy, Initial residual = 0.000283793, Final residual = 1.6418e-07, No Iterations 2
smoothSolver:  Solving for Uz, Initial residual = 9.8469e-05, Final residual = 5.60301e-08, No Iterations 2
GAMG:  Solving for p, Initial residual = 0.00272533, Final residual = 0.000211247, No Iterations 1
GAMG:  Solving for p, Initial residual = 0.00114162, Final residual = 0.000107966, No Iterations 1
GAMG:  Solving for p, Initial residual = 0.000596074, Final residual = 2.33831e-05, No Iterations 2
GAMG:  Solving for p, Initial residual = 0.000392017, Final residual = 3.29942e-05, No Iterations 1
GAMG:  Solving for p, Initial residual = 0.000246702, Final residual = 1.08067e-05, No Iterations 2
time step continuity errors : sum local = 0.000391976, global = 1.39863e-05, cumulative = 0.324542
ExecutionTime = 170.11 s  ClockTime = 170 s

Time = 1983

smoothSolver:  Solving for Ux, Initial residual = 0.000276864, Final residual = 1.71459e-07, No Iterations 2
smoothSolver:  Solving for Uy, Initial residual = 0.000281755, Final residual = 1.66214e-07, No Iterations 2
smoothSolver:  Solving for Uz, Initial residual = 9.85651e-05, Final residual = 5.55586e-08, No Iterations 2
GAMG:  Solving for p, Initial residual = 0.00268779, Final residual = 0.00021168, No Iterations 1
GAMG:  Solving for p, Initial residual = 0.00112903, Final residual = 0.000109661, No Iterations 1
GAMG:  Solving for p, Initial residual = 0.000602185, Final residual = 2.3337e-05, No Iterations 2
GAMG:  Solving for p, Initial residual = 0.000399657, Final residual = 3.3555e-05, No Iterations 1
GAMG:  Solving for p, Initial residual = 0.000251337, Final residual = 1.0601e-05, No Iterations 2
time step continuity errors : sum local = 0.000384515, global = 1.32425e-05, cumulative = 0.324555
ExecutionTime = 170.19 s  ClockTime = 170 s

Time = 1984

smoothSolver:  Solving for Ux, Initial residual = 0.000276085, Final residual = 1.78215e-07, No Iterations 2
smoothSolver:  Solving for Uy, Initial residual = 0.000282729, Final residual = 1.67575e-07, No Iterations 2
smoothSolver:  Solving for Uz, Initial residual = 9.75382e-05, Final residual = 5.501e-08, No Iterations 2
GAMG:  Solving for p, Initial residual = 0.00267829, Final residual = 0.000212864, No Iterations 1
GAMG:  Solving for p, Initial residual = 0.0011447, Final residual = 0.000112022, No Iterations 1
GAMG:  Solving for p, Initial residual = 0.000612324, Final residual = 2.33887e-05, No Iterations 2
GAMG:  Solving for p, Initial residual = 0.000406485, Final residual = 3.3785e-05, No Iterations 1
GAMG:  Solving for p, Initial residual = 0.000256096, Final residual = 1.03545e-05, No Iterations 2
time step continuity errors : sum local = 0.000375502, global = 9.32811e-06, cumulative = 0.324564
ExecutionTime = 170.28 s  ClockTime = 170 s

Time = 1985

smoothSolver:  Solving for Ux, Initial residual = 0.000274351, Final residual = 1.8013e-07, No Iterations 2
smoothSolver:  Solving for Uy, Initial residual = 0.000278155, Final residual = 1.66296e-07, No Iterations 2
smoothSolver:  Solving for Uz, Initial residual = 9.68484e-05, Final residual = 5.56249e-08, No Iterations 2
GAMG:  Solving for p, Initial residual = 0.00265275, Final residual = 0.000210949, No Iterations 1
GAMG:  Solving for p, Initial residual = 0.00114897, Final residual = 0.000112401, No Iterations 1
GAMG:  Solving for p, Initial residual = 0.000612827, Final residual = 2.33481e-05, No Iterations 2
GAMG:  Solving for p, Initial residual = 0.00040952, Final residual = 3.39866e-05, No Iterations 1
GAMG:  Solving for p, Initial residual = 0.000259394, Final residual = 1.02308e-05, No Iterations 2
time step continuity errors : sum local = 0.000371003, global = 3.5786e-06, cumulative = 0.324568
ExecutionTime = 170.36 s  ClockTime = 170 s

Time = 1986

smoothSolver:  Solving for Ux, Initial residual = 0.000278056, Final residual = 1.8785e-07, No Iterations 2
smoothSolver:  Solving for Uy, Initial residual = 0.000282853, Final residual = 1.75651e-07, No Iterations 2
smoothSolver:  Solving for Uz, Initial residual = 9.77419e-05, Final residual = 5.85108e-08, No Iterations 2
GAMG:  Solving for p, Initial residual = 0.00266528, Final residual = 0.000209214, No Iterations 1
GAMG:  Solving for p, Initial residual = 0.00115427, Final residual = 0.000113637, No Iterations 1
GAMG:  Solving for p, Initial residual = 0.000618891, Final residual = 2.37634e-05, No Iterations 2
GAMG:  Solving for p, Initial residual = 0.000413473, Final residual = 3.4984e-05, No Iterations 1
GAMG:  Solving for p, Initial residual = 0.000261178, Final residual = 1.01488e-05, No Iterations 2
time step continuity errors : sum local = 0.00036801, global = -4.4967e-06, cumulative = 0.324563
ExecutionTime = 170.44 s  ClockTime = 170 s

Time = 1987

smoothSolver:  Solving for Ux, Initial residual = 0.000278933, Final residual = 1.80413e-07, No Iterations 2
smoothSolver:  Solving for Uy, Initial residual = 0.000282522, Final residual = 1.73136e-07, No Iterations 2
smoothSolver:  Solving for Uz, Initial residual = 9.92056e-05, Final residual = 5.72519e-08, No Iterations 2
GAMG:  Solving for p, Initial residual = 0.0026268, Final residual = 0.00020868, No Iterations 1
GAMG:  Solving for p, Initial residual = 0.00113799, Final residual = 0.000113517, No Iterations 1
GAMG:  Solving for p, Initial residual = 0.000613555, Final residual = 2.40869e-05, No Iterations 2
GAMG:  Solving for p, Initial residual = 0.000409442, Final residual = 3.46519e-05, No Iterations 1
GAMG:  Solving for p, Initial residual = 0.000258376, Final residual = 1.00586e-05, No Iterations 2
time step continuity errors : sum local = 0.000364719, global = -1.11779e-05, cumulative = 0.324552
ExecutionTime = 170.52 s  ClockTime = 171 s

Time = 1988

smoothSolver:  Solving for Ux, Initial residual = 0.000277331, Final residual = 1.76376e-07, No Iterations 2
smoothSolver:  Solving for Uy, Initial residual = 0.000284583, Final residual = 1.70621e-07, No Iterations 2
smoothSolver:  Solving for Uz, Initial residual = 0.00010025, Final residual = 5.74773e-08, No Iterations 2
GAMG:  Solving for p, Initial residual = 0.00265818, Final residual = 0.000214124, No Iterations 1
GAMG:  Solving for p, Initial residual = 0.00113528, Final residual = 0.000112034, No Iterations 1
GAMG:  Solving for p, Initial residual = 0.000601732, Final residual = 2.37762e-05, No Iterations 2
GAMG:  Solving for p, Initial residual = 0.00039701, Final residual = 3.32396e-05, No Iterations 1
GAMG:  Solving for p, Initial residual = 0.000246704, Final residual = 9.63347e-06, No Iterations 2
time step continuity errors : sum local = 0.000349268, global = -1.33165e-05, cumulative = 0.324539
ExecutionTime = 170.61 s  ClockTime = 171 s

Time = 1989

smoothSolver:  Solving for Ux, Initial residual = 0.000277344, Final residual = 1.71414e-07, No Iterations 2
smoothSolver:  Solving for Uy, Initial residual = 0.000285184, Final residual = 1.68002e-07, No Iterations 2
smoothSolver:  Solving for Uz, Initial residual = 0.000100354, Final residual = 5.79657e-08, No Iterations 2
GAMG:  Solving for p, Initial residual = 0.0026822, Final residual = 0.000213125, No Iterations 1
GAMG:  Solving for p, Initial residual = 0.00114405, Final residual = 0.00010946, No Iterations 1
GAMG:  Solving for p, Initial residual = 0.000604508, Final residual = 2.29388e-05, No Iterations 2
GAMG:  Solving for p, Initial residual = 0.000396545, Final residual = 3.26859e-05, No Iterations 1
GAMG:  Solving for p, Initial residual = 0.000247446, Final residual = 9.64298e-06, No Iterations 2
time step continuity errors : sum local = 0.000349618, global = -1.00758e-05, cumulative = 0.324529
ExecutionTime = 170.69 s  ClockTime = 171 s

Time = 1990

smoothSolver:  Solving for Ux, Initial residual = 0.000276173, Final residual = 1.69912e-07, No Iterations 2
smoothSolver:  Solving for Uy, Initial residual = 0.000283111, Final residual = 1.62743e-07, No Iterations 2
smoothSolver:  Solving for Uz, Initial residual = 0.000100184, Final residual = 5.93037e-08, No Iterations 2
GAMG:  Solving for p, Initial residual = 0.0026164, Final residual = 0.000200459, No Iterations 1
GAMG:  Solving for p, Initial residual = 0.00109848, Final residual = 0.000102106, No Iterations 1
GAMG:  Solving for p, Initial residual = 0.000575859, Final residual = 2.11284e-05, No Iterations 2
GAMG:  Solving for p, Initial residual = 0.000376284, Final residual = 3.04957e-05, No Iterations 1
GAMG:  Solving for p, Initial residual = 0.000235613, Final residual = 8.98148e-06, No Iterations 2
time step continuity errors : sum local = 0.000325638, global = -3.92326e-06, cumulative = 0.324525
ExecutionTime = 170.77 s  ClockTime = 171 s

Time = 1991

smoothSolver:  Solving for Ux, Initial residual = 0.000276863, Final residual = 1.7097e-07, No Iterations 2
smoothSolver:  Solving for Uy, Initial residual = 0.000281208, Final residual = 1.66567e-07, No Iterations 2
smoothSolver:  Solving for Uz, Initial residual = 0.000100056, Final residual = 5.93946e-08, No Iterations 2
GAMG:  Solving for p, Initial residual = 0.00258441, Final residual = 0.00019554, No Iterations 1
GAMG:  Solving for p, Initial residual = 0.00110012, Final residual = 0.000100663, No Iterations 1
GAMG:  Solving for p, Initial residual = 0.000574623, Final residual = 2.04615e-05, No Iterations 2
GAMG:  Solving for p, Initial residual = 0.00037589, Final residual = 3.08182e-05, No Iterations 1
GAMG:  Solving for p, Initial residual = 0.000236975, Final residual = 9.09567e-06, No Iterations 2
time step continuity errors : sum local = 0.000329829, global = 7.97411e-06, cumulative = 0.324533
ExecutionTime = 170.86 s  ClockTime = 171 s

Time = 1992

smoothSolver:  Solving for Ux, Initial residual = 0.000274011, Final residual = 1.71026e-07, No Iterations 2
smoothSolver:  Solving for Uy, Initial residual = 0.000279319, Final residual = 1.69786e-07, No Iterations 2
smoothSolver:  Solving for Uz, Initial residual = 0.000100316, Final residual = 5.84241e-08, No Iterations 2
GAMG:  Solving for p, Initial residual = 0.00256014, Final residual = 0.0001941, No Iterations 1
GAMG:  Solving for p, Initial residual = 0.00108623, Final residual = 0.000100314, No Iterations 1
GAMG:  Solving for p, Initial residual = 0.000568058, Final residual = 2.02094e-05, No Iterations 2
GAMG:  Solving for p, Initial residual = 0.000374884, Final residual = 3.10667e-05, No Iterations 1
GAMG:  Solving for p, Initial residual = 0.000237391, Final residual = 9.1178e-06, No Iterations 2
time step continuity errors : sum local = 0.000330677, global = 2.09322e-05, cumulative = 0.324554
ExecutionTime = 170.94 s  ClockTime = 171 s

Time = 1993

smoothSolver:  Solving for Ux, Initial residual = 0.000274841, Final residual = 1.70289e-07, No Iterations 2
smoothSolver:  Solving for Uy, Initial residual = 0.000276871, Final residual = 1.67943e-07, No Iterations 2
smoothSolver:  Solving for Uz, Initial residual = 0.000100284, Final residual = 5.91953e-08, No Iterations 2
GAMG:  Solving for p, Initial residual = 0.0025884, Final residual = 0.000197157, No Iterations 1
GAMG:  Solving for p, Initial residual = 0.00108678, Final residual = 0.000101678, No Iterations 1
GAMG:  Solving for p, Initial residual = 0.00056633, Final residual = 2.07309e-05, No Iterations 2
GAMG:  Solving for p, Initial residual = 0.000369461, Final residual = 3.11236e-05, No Iterations 1
GAMG:  Solving for p, Initial residual = 0.000234253, Final residual = 9.36363e-06, No Iterations 2
time step continuity errors : sum local = 0.000339613, global = 3.12247e-05, cumulative = 0.324585
ExecutionTime = 171.03 s  ClockTime = 171 s

Time = 1994

smoothSolver:  Solving for Ux, Initial residual = 0.000274197, Final residual = 1.72678e-07, No Iterations 2
smoothSolver:  Solving for Uy, Initial residual = 0.00027616, Final residual = 1.67877e-07, No Iterations 2
smoothSolver:  Solving for Uz, Initial residual = 0.000100796, Final residual = 5.90356e-08, No Iterations 2
GAMG:  Solving for p, Initial residual = 0.00259395, Final residual = 0.000194003, No Iterations 1
GAMG:  Solving for p, Initial residual = 0.00105861, Final residual = 0.000100129, No Iterations 1
GAMG:  Solving for p, Initial residual = 0.000553945, Final residual = 2.07489e-05, No Iterations 2
GAMG:  Solving for p, Initial residual = 0.000360528, Final residual = 3.0605e-05, No Iterations 1
GAMG:  Solving for p, Initial residual = 0.000227938, Final residual = 9.4308e-06, No Iterations 2
time step continuity errors : sum local = 0.000342069, global = 3.56833e-05, cumulative = 0.324621
ExecutionTime = 171.11 s  ClockTime = 171 s

Time = 1995

smoothSolver:  Solving for Ux, Initial residual = 0.000277085, Final residual = 1.75034e-07, No Iterations 2
smoothSolver:  Solving for Uy, Initial residual = 0.000276011, Final residual = 1.66925e-07, No Iterations 2
smoothSolver:  Solving for Uz, Initial residual = 9.95983e-05, Final residual = 5.69991e-08, No Iterations 2
GAMG:  Solving for p, Initial residual = 0.00259239, Final residual = 0.000198104, No Iterations 1
GAMG:  Solving for p, Initial residual = 0.00105205, Final residual = 0.000102311, No Iterations 1
GAMG:  Solving for p, Initial residual = 0.000553441, Final residual = 2.19514e-05, No Iterations 2
GAMG:  Solving for p, Initial residual = 0.000366717, Final residual = 3.12239e-05, No Iterations 1
GAMG:  Solving for p, Initial residual = 0.000230474, Final residual = 9.73598e-06, No Iterations 2
time step continuity errors : sum local = 0.000353103, global = 3.63679e-05, cumulative = 0.324657
ExecutionTime = 171.2 s  ClockTime = 171 s

Time = 1996

smoothSolver:  Solving for Ux, Initial residual = 0.000277706, Final residual = 1.79571e-07, No Iterations 2
smoothSolver:  Solving for Uy, Initial residual = 0.000273052, Final residual = 1.7081e-07, No Iterations 2
smoothSolver:  Solving for Uz, Initial residual = 9.76757e-05, Final residual = 5.54376e-08, No Iterations 2
GAMG:  Solving for p, Initial residual = 0.00259343, Final residual = 0.000205332, No Iterations 1
GAMG:  Solving for p, Initial residual = 0.00107252, Final residual = 3.59813e-05, No Iterations 2
GAMG:  Solving for p, Initial residual = 0.000596751, Final residual = 4.86108e-05, No Iterations 1
GAMG:  Solving for p, Initial residual = 0.000347122, Final residual = 1.35194e-05, No Iterations 2
GAMG:  Solving for p, Initial residual = 0.000250899, Final residual = 2.12708e-05, No Iterations 1
time step continuity errors : sum local = 0.000771373, global = 3.20479e-05, cumulative = 0.324689
ExecutionTime = 171.28 s  ClockTime = 171 s

Time = 1997

smoothSolver:  Solving for Ux, Initial residual = 0.000275187, Final residual = 1.79532e-07, No Iterations 2
smoothSolver:  Solving for Uy, Initial residual = 0.00027234, Final residual = 1.7111e-07, No Iterations 2
smoothSolver:  Solving for Uz, Initial residual = 9.64733e-05, Final residual = 5.58405e-08, No Iterations 2
GAMG:  Solving for p, Initial residual = 0.00255239, Final residual = 0.000198998, No Iterations 1
GAMG:  Solving for p, Initial residual = 0.00104946, Final residual = 0.000103255, No Iterations 1
GAMG:  Solving for p, Initial residual = 0.000559456, Final residual = 2.15501e-05, No Iterations 2
GAMG:  Solving for p, Initial residual = 0.000376954, Final residual = 3.13659e-05, No Iterations 1
GAMG:  Solving for p, Initial residual = 0.000237977, Final residual = 9.41706e-06, No Iterations 2
time step continuity errors : sum local = 0.000341498, global = 2.41555e-05, cumulative = 0.324713
ExecutionTime = 171.36 s  ClockTime = 171 s

Time = 1998

smoothSolver:  Solving for Ux, Initial residual = 0.000273895, Final residual = 1.76834e-07, No Iterations 2
smoothSolver:  Solving for Uy, Initial residual = 0.000276998, Final residual = 1.70542e-07, No Iterations 2
smoothSolver:  Solving for Uz, Initial residual = 9.63434e-05, Final residual = 5.59238e-08, No Iterations 2
GAMG:  Solving for p, Initial residual = 0.00257694, Final residual = 0.000199416, No Iterations 1
GAMG:  Solving for p, Initial residual = 0.00107597, Final residual = 0.000103445, No Iterations 1
GAMG:  Solving for p, Initial residual = 0.000570569, Final residual = 2.11313e-05, No Iterations 2
GAMG:  Solving for p, Initial residual = 0.000381069, Final residual = 3.18397e-05, No Iterations 1
GAMG:  Solving for p, Initial residual = 0.00024008, Final residual = 9.31501e-06, No Iterations 2
time step continuity errors : sum local = 0.00033779, global = 1.37165e-05, cumulative = 0.324727
ExecutionTime = 171.45 s  ClockTime = 171 s

Time = 1999

smoothSolver:  Solving for Ux, Initial residual = 0.000269987, Final residual = 1.70317e-07, No Iterations 2
smoothSolver:  Solving for Uy, Initial residual = 0.000278262, Final residual = 1.64932e-07, No Iterations 2
smoothSolver:  Solving for Uz, Initial residual = 9.61338e-05, Final residual = 5.53024e-08, No Iterations 2
GAMG:  Solving for p, Initial residual = 0.00260418, Final residual = 0.000198268, No Iterations 1
GAMG:  Solving for p, Initial residual = 0.00109846, Final residual = 0.000102815, No Iterations 1
GAMG:  Solving for p, Initial residual = 0.000578158, Final residual = 2.08303e-05, No Iterations 2
GAMG:  Solving for p, Initial residual = 0.00038028, Final residual = 3.16946e-05, No Iterations 1
GAMG:  Solving for p, Initial residual = 0.000239808, Final residual = 9.22518e-06, No Iterations 2
time step continuity errors : sum local = 0.000334535, global = 1.1256e-06, cumulative = 0.324728
ExecutionTime = 171.53 s  ClockTime = 172 s

Time = 2000

smoothSolver:  Solving for Ux, Initial residual = 0.000266825, Final residual = 1.65812e-07, No Iterations 2
smoothSolver:  Solving for Uy, Initial residual = 0.000278012, Final residual = 1.59428e-07, No Iterations 2
smoothSolver:  Solving for Uz, Initial residual = 9.69348e-05, Final residual = 5.55624e-08, No Iterations 2
GAMG:  Solving for p, Initial residual = 0.00259956, Final residual = 0.000195553, No Iterations 1
GAMG:  Solving for p, Initial residual = 0.00108231, Final residual = 0.000100265, No Iterations 1
GAMG:  Solving for p, Initial residual = 0.000565711, Final residual = 1.98263e-05, No Iterations 2
GAMG:  Solving for p, Initial residual = 0.000367785, Final residual = 3.00004e-05, No Iterations 1
GAMG:  Solving for p, Initial residual = 0.000231057, Final residual = 8.43448e-06, No Iterations 2
time step continuity errors : sum local = 0.000305829, global = -1.73884e-05, cumulative = 0.324711
ExecutionTime = 171.75 s  ClockTime = 172 s

End

