/*---------------------------------------------------------------------------*\
| =========                 |                                                 |
| \\      /  F ield         | OpenFOAM: The Open Source CFD Toolbox           |
|  \\    /   O peration     | Version:  2506                                  |
|   \\  /    A nd           | Website:  www.openfoam.com                      |
|    \\/     M anipulation  |                                                 |
\*---------------------------------------------------------------------------*/
Build  : _615aae61-20250627 OPENFOAM=2506 version=2506
Arch   : "LSB;label=32;scalar=64"
Exec   : simpleFoam -noFunctionObjects -case /home/ubuntu/fan_CFD_dataset/cases/fan_16
Date   : Nov 07 2025
Time   : 14:55:38
Host   : ip-172-31-37-87
PID    : 172944
I/O    : uncollated
Case   : /home/ubuntu/fan_CFD_dataset/cases/fan_16
nProcs : 1
trapFpe: Floating point exception trapping enabled (FOAM_SIGFPE).
fileModificationChecking : Monitoring run-time modified files using timeStampMaster (fileModificationSkew 5, maxFileModificationPolls 20)
allowSystemOperations : Allowing user-supplied system call operations

// * * * * * * * * * * * * * * * * * * * * * * * * * * * * * * * * * * * * * //
Create time

Create mesh for time = 0


SIMPLE: convergence criteria
    field U	 tolerance 1e-05
    field p	 tolerance 0.0001

Reading field p

Reading field U

Reading/calculating face flux field phi

Selecting incompressible transport model Newtonian
Selecting turbulence model type laminar
Selecting laminar stress model Stokes
No MRF models present

No finite volume options present

Starting time loop

Time = 1

smoothSolver:  Solving for Ux, Initial residual = 1, Final residual = 0.000327649, No Iterations 2
smoothSolver:  Solving for Uy, Initial residual = 1, Final residual = 0.000320715, No Iterations 2
smoothSolver:  Solving for Uz, Initial residual = 1, Final residual = 0.000706925, No Iterations 2
GAMG:  Solving for p, Initial residual = 1, Final residual = 0.0620338, No Iterations 4
GAMG:  Solving for p, Initial residual = 0.19514, Final residual = 0.0141277, No Iterations 1
GAMG:  Solving for p, Initial residual = 0.0529772, Final residual = 0.0020356, No Iterations 2
GAMG:  Solving for p, Initial residual = 0.0341178, Final residual = 0.00266534, No Iterations 1
GAMG:  Solving for p, Initial residual = 0.0150042, Final residual = 0.000767983, No Iterations 2
time step continuity errors : sum local = 6.11098, global = -0.724361, cumulative = -0.724361
ExecutionTime = 0.33 s  ClockTime = 0 s

Time = 2

smoothSolver:  Solving for Ux, Initial residual = 0.0874211, Final residual = 3.26652e-05, No Iterations 2
smoothSolver:  Solving for Uy, Initial residual = 0.0885047, Final residual = 3.33443e-05, No Iterations 2
smoothSolver:  Solving for Uz, Initial residual = 0.178943, Final residual = 5.89272e-05, No Iterations 2
GAMG:  Solving for p, Initial residual = 0.483579, Final residual = 0.0361311, No Iterations 4
GAMG:  Solving for p, Initial residual = 0.178071, Final residual = 0.0129405, No Iterations 1
GAMG:  Solving for p, Initial residual = 0.0556522, Final residual = 0.00219899, No Iterations 2
GAMG:  Solving for p, Initial residual = 0.0376508, Final residual = 0.00300133, No Iterations 1
GAMG:  Solving for p, Initial residual = 0.0185947, Final residual = 0.000955632, No Iterations 2
time step continuity errors : sum local = 7.37504, global = -0.431421, cumulative = -1.15578
ExecutionTime = 0.45 s  ClockTime = 1 s

Time = 3

smoothSolver:  Solving for Ux, Initial residual = 0.19415, Final residual = 8.90691e-05, No Iterations 2
smoothSolver:  Solving for Uy, Initial residual = 0.191641, Final residual = 8.50876e-05, No Iterations 2
smoothSolver:  Solving for Uz, Initial residual = 0.53264, Final residual = 0.000192662, No Iterations 2
GAMG:  Solving for p, Initial residual = 0.114169, Final residual = 0.00933207, No Iterations 3
GAMG:  Solving for p, Initial residual = 0.129152, Final residual = 0.00945852, No Iterations 1
GAMG:  Solving for p, Initial residual = 0.0409664, Final residual = 0.00177266, No Iterations 2
GAMG:  Solving for p, Initial residual = 0.0301664, Final residual = 0.00246094, No Iterations 1
GAMG:  Solving for p, Initial residual = 0.0142665, Final residual = 0.000754737, No Iterations 2
time step continuity errors : sum local = 3.88378, global = -0.227733, cumulative = -1.38351
ExecutionTime = 0.56 s  ClockTime = 1 s

Time = 4

smoothSolver:  Solving for Ux, Initial residual = 0.173573, Final residual = 7.85408e-05, No Iterations 2
smoothSolver:  Solving for Uy, Initial residual = 0.173381, Final residual = 7.52576e-05, No Iterations 2
smoothSolver:  Solving for Uz, Initial residual = 0.567388, Final residual = 0.000207816, No Iterations 2
GAMG:  Solving for p, Initial residual = 0.0698546, Final residual = 0.00556484, No Iterations 1
GAMG:  Solving for p, Initial residual = 0.0266127, Final residual = 0.00138245, No Iterations 2
GAMG:  Solving for p, Initial residual = 0.0240639, Final residual = 0.00190265, No Iterations 1
GAMG:  Solving for p, Initial residual = 0.0110881, Final residual = 0.000593235, No Iterations 2
GAMG:  Solving for p, Initial residual = 0.0103435, Final residual = 0.000893609, No Iterations 1
time step continuity errors : sum local = 2.8529, global = -0.656381, cumulative = -2.0399
ExecutionTime = 0.66 s  ClockTime = 1 s

Time = 5

smoothSolver:  Solving for Ux, Initial residual = 0.128496, Final residual = 5.68762e-05, No Iterations 2
smoothSolver:  Solving for Uy, Initial residual = 0.128803, Final residual = 5.49951e-05, No Iterations 2
smoothSolver:  Solving for Uz, Initial residual = 0.517316, Final residual = 0.000185425, No Iterations 2
GAMG:  Solving for p, Initial residual = 0.0724553, Final residual = 0.00524777, No Iterations 2
GAMG:  Solving for p, Initial residual = 0.1229, Final residual = 0.0085027, No Iterations 1
GAMG:  Solving for p, Initial residual = 0.0635253, Final residual = 0.0030613, No Iterations 2
GAMG:  Solving for p, Initial residual = 0.0812184, Final residual = 0.00595046, No Iterations 1
GAMG:  Solving for p, Initial residual = 0.0393194, Final residual = 0.00192695, No Iterations 2
time step continuity errors : sum local = 1.86298, global = 0.123912, cumulative = -1.91598
ExecutionTime = 0.76 s  ClockTime = 1 s

Time = 6

smoothSolver:  Solving for Ux, Initial residual = 0.0886186, Final residual = 3.83291e-05, No Iterations 2
smoothSolver:  Solving for Uy, Initial residual = 0.0894244, Final residual = 3.72698e-05, No Iterations 2
smoothSolver:  Solving for Uz, Initial residual = 0.40295, Final residual = 0.000143081, No Iterations 2
GAMG:  Solving for p, Initial residual = 0.0841796, Final residual = 0.00758795, No Iterations 3
GAMG:  Solving for p, Initial residual = 0.309942, Final residual = 0.0222752, No Iterations 1
GAMG:  Solving for p, Initial residual = 0.130232, Final residual = 0.00577808, No Iterations 2
GAMG:  Solving for p, Initial residual = 0.0927093, Final residual = 0.00729138, No Iterations 1
GAMG:  Solving for p, Initial residual = 0.0428144, Final residual = 0.00220919, No Iterations 2
time step continuity errors : sum local = 3.5573, global = 0.211887, cumulative = -1.7041
ExecutionTime = 0.87 s  ClockTime = 1 s

Time = 7

smoothSolver:  Solving for Ux, Initial residual = 0.0631212, Final residual = 2.85009e-05, No Iterations 2
smoothSolver:  Solving for Uy, Initial residual = 0.0636231, Final residual = 2.79304e-05, No Iterations 2
smoothSolver:  Solving for Uz, Initial residual = 0.246173, Final residual = 9.15991e-05, No Iterations 2
GAMG:  Solving for p, Initial residual = 0.110895, Final residual = 0.00508254, No Iterations 4
GAMG:  Solving for p, Initial residual = 0.262813, Final residual = 0.0191993, No Iterations 1
GAMG:  Solving for p, Initial residual = 0.0957706, Final residual = 0.00395536, No Iterations 2
GAMG:  Solving for p, Initial residual = 0.0633185, Final residual = 0.00512968, No Iterations 1
GAMG:  Solving for p, Initial residual = 0.0297223, Final residual = 0.00157396, No Iterations 2
time step continuity errors : sum local = 4.3165, global = 0.25731, cumulative = -1.44679
ExecutionTime = 0.99 s  ClockTime = 1 s

Time = 8

smoothSolver:  Solving for Ux, Initial residual = 0.0575652, Final residual = 2.70165e-05, No Iterations 2
smoothSolver:  Solving for Uy, Initial residual = 0.0572483, Final residual = 2.6617e-05, No Iterations 2
smoothSolver:  Solving for Uz, Initial residual = 0.0998808, Final residual = 4.56104e-05, No Iterations 2
GAMG:  Solving for p, Initial residual = 0.227964, Final residual = 0.0222156, No Iterations 3
GAMG:  Solving for p, Initial residual = 0.221558, Final residual = 0.0162954, No Iterations 1
GAMG:  Solving for p, Initial residual = 0.0739545, Final residual = 0.00336818, No Iterations 2
GAMG:  Solving for p, Initial residual = 0.0532925, Final residual = 0.00436395, No Iterations 1
GAMG:  Solving for p, Initial residual = 0.0253102, Final residual = 0.00136995, No Iterations 2
time step continuity errors : sum local = 4.29179, global = 0.224971, cumulative = -1.22182
ExecutionTime = 1.1 s  ClockTime = 1 s

Time = 9

smoothSolver:  Solving for Ux, Initial residual = 0.0688393, Final residual = 3.26064e-05, No Iterations 2
smoothSolver:  Solving for Uy, Initial residual = 0.0678654, Final residual = 3.17997e-05, No Iterations 2
smoothSolver:  Solving for Uz, Initial residual = 0.120344, Final residual = 5.13765e-05, No Iterations 2
GAMG:  Solving for p, Initial residual = 0.258736, Final residual = 0.0229534, No Iterations 2
GAMG:  Solving for p, Initial residual = 0.163166, Final residual = 0.0119945, No Iterations 1
GAMG:  Solving for p, Initial residual = 0.0600818, Final residual = 0.00305946, No Iterations 2
GAMG:  Solving for p, Initial residual = 0.0481943, Final residual = 0.00392405, No Iterations 1
GAMG:  Solving for p, Initial residual = 0.0226675, Final residual = 0.00124957, No Iterations 2
time step continuity errors : sum local = 3.49667, global = 0.168114, cumulative = -1.0537
ExecutionTime = 1.21 s  ClockTime = 1 s

Time = 10

smoothSolver:  Solving for Ux, Initial residual = 0.080968, Final residual = 3.78133e-05, No Iterations 2
smoothSolver:  Solving for Uy, Initial residual = 0.0797209, Final residual = 3.70512e-05, No Iterations 2
smoothSolver:  Solving for Uz, Initial residual = 0.24944, Final residual = 9.01216e-05, No Iterations 2
GAMG:  Solving for p, Initial residual = 0.176636, Final residual = 0.017391, No Iterations 1
GAMG:  Solving for p, Initial residual = 0.080737, Final residual = 0.00438308, No Iterations 2
GAMG:  Solving for p, Initial residual = 0.0605402, Final residual = 0.0049713, No Iterations 1
GAMG:  Solving for p, Initial residual = 0.0278064, Final residual = 0.00156133, No Iterations 2
GAMG:  Solving for p, Initial residual = 0.0253312, Final residual = 0.0022393, No Iterations 1
time step continuity errors : sum local = 4.51875, global = 1.08733, cumulative = 0.0336275
ExecutionTime = 1.31 s  ClockTime = 1 s

Time = 11

smoothSolver:  Solving for Ux, Initial residual = 0.0848525, Final residual = 3.98878e-05, No Iterations 2
smoothSolver:  Solving for Uy, Initial residual = 0.0840533, Final residual = 3.84942e-05, No Iterations 2
smoothSolver:  Solving for Uz, Initial residual = 0.33138, Final residual = 0.000115097, No Iterations 2
GAMG:  Solving for p, Initial residual = 0.148748, Final residual = 0.0133349, No Iterations 1
GAMG:  Solving for p, Initial residual = 0.0620146, Final residual = 0.00321277, No Iterations 2
GAMG:  Solving for p, Initial residual = 0.0446578, Final residual = 0.00357634, No Iterations 1
GAMG:  Solving for p, Initial residual = 0.0202973, Final residual = 0.00098019, No Iterations 2
GAMG:  Solving for p, Initial residual = 0.0154771, Final residual = 0.00146292, No Iterations 1
time step continuity errors : sum local = 1.61132, global = -0.107815, cumulative = -0.0741873
ExecutionTime = 1.4 s  ClockTime = 2 s

Time = 12

smoothSolver:  Solving for Ux, Initial residual = 0.0836881, Final residual = 3.9954e-05, No Iterations 2
smoothSolver:  Solving for Uy, Initial residual = 0.0833946, Final residual = 3.85884e-05, No Iterations 2
smoothSolver:  Solving for Uz, Initial residual = 0.347633, Final residual = 0.000118427, No Iterations 2
GAMG:  Solving for p, Initial residual = 0.140399, Final residual = 0.00807074, No Iterations 2
GAMG:  Solving for p, Initial residual = 0.2411, Final residual = 0.0165073, No Iterations 1
GAMG:  Solving for p, Initial residual = 0.130296, Final residual = 0.00616544, No Iterations 2
GAMG:  Solving for p, Initial residual = 0.0980992, Final residual = 0.00695449, No Iterations 1
GAMG:  Solving for p, Initial residual = 0.0433523, Final residual = 0.00205072, No Iterations 2
time step continuity errors : sum local = 1.21528, global = -0.0826914, cumulative = -0.156879
ExecutionTime = 1.51 s  ClockTime = 2 s

Time = 13

smoothSolver:  Solving for Ux, Initial residual = 0.0792839, Final residual = 3.83865e-05, No Iterations 2
smoothSolver:  Solving for Uy, Initial residual = 0.0787294, Final residual = 3.69209e-05, No Iterations 2
smoothSolver:  Solving for Uz, Initial residual = 0.274337, Final residual = 9.55856e-05, No Iterations 2
GAMG:  Solving for p, Initial residual = 0.150887, Final residual = 0.0124555, No Iterations 2
GAMG:  Solving for p, Initial residual = 0.265629, Final residual = 0.0186171, No Iterations 1
GAMG:  Solving for p, Initial residual = 0.111453, Final residual = 0.00535814, No Iterations 2
GAMG:  Solving for p, Initial residual = 0.0820645, Final residual = 0.00606272, No Iterations 1
GAMG:  Solving for p, Initial residual = 0.0354511, Final residual = 0.00174126, No Iterations 2
time step continuity errors : sum local = 1.89948, global = -0.129738, cumulative = -0.286617
ExecutionTime = 1.62 s  ClockTime = 2 s

Time = 14

smoothSolver:  Solving for Ux, Initial residual = 0.0754249, Final residual = 3.71141e-05, No Iterations 2
smoothSolver:  Solving for Uy, Initial residual = 0.0742681, Final residual = 3.52813e-05, No Iterations 2
smoothSolver:  Solving for Uz, Initial residual = 0.149477, Final residual = 5.84116e-05, No Iterations 2
GAMG:  Solving for p, Initial residual = 0.19902, Final residual = 0.0196649, No Iterations 2
GAMG:  Solving for p, Initial residual = 0.228599, Final residual = 0.0164004, No Iterations 1
GAMG:  Solving for p, Initial residual = 0.0900595, Final residual = 0.00442253, No Iterations 2
GAMG:  Solving for p, Initial residual = 0.0673204, Final residual = 0.00516487, No Iterations 1
GAMG:  Solving for p, Initial residual = 0.0294648, Final residual = 0.00149784, No Iterations 2
time step continuity errors : sum local = 2.15167, global = -0.137253, cumulative = -0.423869
ExecutionTime = 1.72 s  ClockTime = 2 s

Time = 15

smoothSolver:  Solving for Ux, Initial residual = 0.0726277, Final residual = 3.56493e-05, No Iterations 2
smoothSolver:  Solving for Uy, Initial residual = 0.0710964, Final residual = 3.40449e-05, No Iterations 2
smoothSolver:  Solving for Uz, Initial residual = 0.0797397, Final residual = 3.80068e-05, No Iterations 2
GAMG:  Solving for p, Initial residual = 0.397691, Final residual = 0.036014, No Iterations 2
GAMG:  Solving for p, Initial residual = 0.186205, Final residual = 0.013833, No Iterations 1
GAMG:  Solving for p, Initial residual = 0.0702404, Final residual = 0.00358057, No Iterations 2
GAMG:  Solving for p, Initial residual = 0.0554887, Final residual = 0.00443675, No Iterations 1
GAMG:  Solving for p, Initial residual = 0.0252168, Final residual = 0.00133689, No Iterations 2
time step continuity errors : sum local = 1.96551, global = -0.113029, cumulative = -0.536899
ExecutionTime = 1.83 s  ClockTime = 2 s

Time = 16

smoothSolver:  Solving for Ux, Initial residual = 0.0677223, Final residual = 3.30545e-05, No Iterations 2
smoothSolver:  Solving for Uy, Initial residual = 0.0665829, Final residual = 3.20804e-05, No Iterations 2
smoothSolver:  Solving for Uz, Initial residual = 0.134195, Final residual = 5.07776e-05, No Iterations 2
GAMG:  Solving for p, Initial residual = 0.225265, Final residual = 0.0150361, No Iterations 2
GAMG:  Solving for p, Initial residual = 0.132811, Final residual = 0.0108282, No Iterations 1
GAMG:  Solving for p, Initial residual = 0.0527362, Final residual = 0.00295338, No Iterations 2
GAMG:  Solving for p, Initial residual = 0.0456279, Final residual = 0.00387713, No Iterations 1
GAMG:  Solving for p, Initial residual = 0.0218821, Final residual = 0.00123063, No Iterations 2
time step continuity errors : sum local = 1.49774, global = -0.0756363, cumulative = -0.612535
ExecutionTime = 1.93 s  ClockTime = 2 s

Time = 17

smoothSolver:  Solving for Ux, Initial residual = 0.0593689, Final residual = 2.88098e-05, No Iterations 2
smoothSolver:  Solving for Uy, Initial residual = 0.0589019, Final residual = 2.87991e-05, No Iterations 2
smoothSolver:  Solving for Uz, Initial residual = 0.185991, Final residual = 6.39779e-05, No Iterations 2
GAMG:  Solving for p, Initial residual = 0.16877, Final residual = 0.00691933, No Iterations 2
GAMG:  Solving for p, Initial residual = 0.0866423, Final residual = 0.00828055, No Iterations 1
GAMG:  Solving for p, Initial residual = 0.040863, Final residual = 0.00222536, No Iterations 2
GAMG:  Solving for p, Initial residual = 0.0334609, Final residual = 0.00323262, No Iterations 1
GAMG:  Solving for p, Initial residual = 0.0180409, Final residual = 0.0011065, No Iterations 2
time step continuity errors : sum local = 0.875247, global = -0.05436, cumulative = -0.666895
ExecutionTime = 2.04 s  ClockTime = 2 s

Time = 18

smoothSolver:  Solving for Ux, Initial residual = 0.0497971, Final residual = 2.43898e-05, No Iterations 2
smoothSolver:  Solving for Uy, Initial residual = 0.0496339, Final residual = 2.46319e-05, No Iterations 2
smoothSolver:  Solving for Uz, Initial residual = 0.191188, Final residual = 6.46989e-05, No Iterations 2
GAMG:  Solving for p, Initial residual = 0.15016, Final residual = 0.00718179, No Iterations 2
GAMG:  Solving for p, Initial residual = 0.135481, Final residual = 0.0100656, No Iterations 1
GAMG:  Solving for p, Initial residual = 0.0555223, Final residual = 0.00285883, No Iterations 2
GAMG:  Solving for p, Initial residual = 0.0484952, Final residual = 0.0040098, No Iterations 1
GAMG:  Solving for p, Initial residual = 0.0228111, Final residual = 0.00125813, No Iterations 2
time step continuity errors : sum local = 0.491091, global = 0.0305825, cumulative = -0.636312
ExecutionTime = 2.14 s  ClockTime = 2 s

Time = 19

smoothSolver:  Solving for Ux, Initial residual = 0.0431236, Final residual = 2.12004e-05, No Iterations 2
smoothSolver:  Solving for Uy, Initial residual = 0.0430247, Final residual = 2.14348e-05, No Iterations 2
smoothSolver:  Solving for Uz, Initial residual = 0.157957, Final residual = 5.3648e-05, No Iterations 2
GAMG:  Solving for p, Initial residual = 0.145431, Final residual = 0.00996905, No Iterations 2
GAMG:  Solving for p, Initial residual = 0.262874, Final residual = 0.0182607, No Iterations 1
GAMG:  Solving for p, Initial residual = 0.108051, Final residual = 0.00523974, No Iterations 2
GAMG:  Solving for p, Initial residual = 0.0804287, Final residual = 0.00576383, No Iterations 1
GAMG:  Solving for p, Initial residual = 0.0345217, Final residual = 0.00168043, No Iterations 2
time step continuity errors : sum local = 0.689375, global = 0.0448011, cumulative = -0.591511
ExecutionTime = 2.25 s  ClockTime = 2 s

Time = 20

smoothSolver:  Solving for Ux, Initial residual = 0.0413433, Final residual = 1.99415e-05, No Iterations 2
smoothSolver:  Solving for Uy, Initial residual = 0.0408925, Final residual = 1.96077e-05, No Iterations 2
smoothSolver:  Solving for Uz, Initial residual = 0.103871, Final residual = 3.72728e-05, No Iterations 2
GAMG:  Solving for p, Initial residual = 0.159209, Final residual = 0.0140016, No Iterations 2
GAMG:  Solving for p, Initial residual = 0.230761, Final residual = 0.0162413, No Iterations 1
GAMG:  Solving for p, Initial residual = 0.095316, Final residual = 0.00465835, No Iterations 2
GAMG:  Solving for p, Initial residual = 0.0718853, Final residual = 0.00526986, No Iterations 1
GAMG:  Solving for p, Initial residual = 0.0308934, Final residual = 0.00154089, No Iterations 2
time step continuity errors : sum local = 0.910991, global = 0.0625999, cumulative = -0.528911
ExecutionTime = 2.35 s  ClockTime = 2 s

Time = 21

smoothSolver:  Solving for Ux, Initial residual = 0.0424515, Final residual = 1.97257e-05, No Iterations 2
smoothSolver:  Solving for Uy, Initial residual = 0.0418262, Final residual = 1.9456e-05, No Iterations 2
smoothSolver:  Solving for Uz, Initial residual = 0.055201, Final residual = 2.3353e-05, No Iterations 2
GAMG:  Solving for p, Initial residual = 0.226805, Final residual = 0.0211674, No Iterations 2
GAMG:  Solving for p, Initial residual = 0.200778, Final residual = 0.0145117, No Iterations 1
GAMG:  Solving for p, Initial residual = 0.0804553, Final residual = 0.0040311, No Iterations 2
GAMG:  Solving for p, Initial residual = 0.0623663, Final residual = 0.00480008, No Iterations 1
GAMG:  Solving for p, Initial residual = 0.027604, Final residual = 0.00142885, No Iterations 2
time step continuity errors : sum local = 0.970304, global = 0.0613979, cumulative = -0.467514
ExecutionTime = 2.46 s  ClockTime = 3 s

Time = 22

smoothSolver:  Solving for Ux, Initial residual = 0.0431873, Final residual = 1.99353e-05, No Iterations 2
smoothSolver:  Solving for Uy, Initial residual = 0.0425693, Final residual = 1.94447e-05, No Iterations 2
smoothSolver:  Solving for Uz, Initial residual = 0.047425, Final residual = 2.12016e-05, No Iterations 2
GAMG:  Solving for p, Initial residual = 0.28515, Final residual = 0.0215596, No Iterations 2
GAMG:  Solving for p, Initial residual = 0.162382, Final residual = 0.0125316, No Iterations 1
GAMG:  Solving for p, Initial residual = 0.0639429, Final residual = 0.00339841, No Iterations 2
GAMG:  Solving for p, Initial residual = 0.0532616, Final residual = 0.00434605, No Iterations 1
GAMG:  Solving for p, Initial residual = 0.0248276, Final residual = 0.00134304, No Iterations 2
time step continuity errors : sum local = 0.861605, global = 0.0462212, cumulative = -0.421292
ExecutionTime = 2.56 s  ClockTime = 3 s

Time = 23

smoothSolver:  Solving for Ux, Initial residual = 0.0419741, Final residual = 1.9131e-05, No Iterations 2
smoothSolver:  Solving for Uy, Initial residual = 0.0414126, Final residual = 1.88948e-05, No Iterations 2
smoothSolver:  Solving for Uz, Initial residual = 0.0716323, Final residual = 2.69334e-05, No Iterations 2
GAMG:  Solving for p, Initial residual = 0.206523, Final residual = 0.0116241, No Iterations 2
GAMG:  Solving for p, Initial residual = 0.119466, Final residual = 0.0105223, No Iterations 1
GAMG:  Solving for p, Initial residual = 0.0530376, Final residual = 0.00313988, No Iterations 2
GAMG:  Solving for p, Initial residual = 0.0476539, Final residual = 0.00415943, No Iterations 1
GAMG:  Solving for p, Initial residual = 0.0233044, Final residual = 0.00134908, No Iterations 2
time step continuity errors : sum local = 0.664815, global = 0.0317787, cumulative = -0.389514
ExecutionTime = 2.67 s  ClockTime = 3 s

Time = 24

smoothSolver:  Solving for Ux, Initial residual = 0.0391209, Final residual = 1.78249e-05, No Iterations 2
smoothSolver:  Solving for Uy, Initial residual = 0.0387464, Final residual = 1.76161e-05, No Iterations 2
smoothSolver:  Solving for Uz, Initial residual = 0.0910393, Final residual = 3.13043e-05, No Iterations 2
GAMG:  Solving for p, Initial residual = 0.17352, Final residual = 0.00772651, No Iterations 2
GAMG:  Solving for p, Initial residual = 0.104217, Final residual = 0.00978, No Iterations 1
GAMG:  Solving for p, Initial residual = 0.0469437, Final residual = 0.00233226, No Iterations 2
GAMG:  Solving for p, Initial residual = 0.0352089, Final residual = 0.0012938, No Iterations 2
GAMG:  Solving for p, Initial residual = 0.0221279, Final residual = 0.00084786, No Iterations 2
time step continuity errors : sum local = 0.279897, global = 0.0230387, cumulative = -0.366475
ExecutionTime = 2.77 s  ClockTime = 3 s

Time = 25

smoothSolver:  Solving for Ux, Initial residual = 0.0361431, Final residual = 1.65373e-05, No Iterations 2
smoothSolver:  Solving for Uy, Initial residual = 0.0360622, Final residual = 1.64151e-05, No Iterations 2
smoothSolver:  Solving for Uz, Initial residual = 0.0919993, Final residual = 3.08645e-05, No Iterations 2
GAMG:  Solving for p, Initial residual = 0.158419, Final residual = 0.00868683, No Iterations 2
GAMG:  Solving for p, Initial residual = 0.185297, Final residual = 0.0136168, No Iterations 1
GAMG:  Solving for p, Initial residual = 0.0772025, Final residual = 0.00407968, No Iterations 2
GAMG:  Solving for p, Initial residual = 0.0737285, Final residual = 0.00594687, No Iterations 1
GAMG:  Solving for p, Initial residual = 0.0335479, Final residual = 0.00190678, No Iterations 2
time step continuity errors : sum local = 0.300025, global = -0.0159219, cumulative = -0.382397
ExecutionTime = 2.88 s  ClockTime = 3 s

Time = 26

smoothSolver:  Solving for Ux, Initial residual = 0.0342491, Final residual = 1.56384e-05, No Iterations 2
smoothSolver:  Solving for Uy, Initial residual = 0.0340459, Final residual = 1.55257e-05, No Iterations 2
smoothSolver:  Solving for Uz, Initial residual = 0.0741195, Final residual = 2.52382e-05, No Iterations 2
GAMG:  Solving for p, Initial residual = 0.157445, Final residual = 0.0110912, No Iterations 2
GAMG:  Solving for p, Initial residual = 0.228616, Final residual = 0.0161541, No Iterations 1
GAMG:  Solving for p, Initial residual = 0.0895909, Final residual = 0.00448889, No Iterations 2
GAMG:  Solving for p, Initial residual = 0.0676995, Final residual = 0.00496442, No Iterations 1
GAMG:  Solving for p, Initial residual = 0.0290162, Final residual = 0.00148206, No Iterations 2
time step continuity errors : sum local = 0.367188, global = -0.0208976, cumulative = -0.403294
ExecutionTime = 2.98 s  ClockTime = 3 s

Time = 27

smoothSolver:  Solving for Ux, Initial residual = 0.0332807, Final residual = 1.51076e-05, No Iterations 2
smoothSolver:  Solving for Uy, Initial residual = 0.0325716, Final residual = 1.48971e-05, No Iterations 2
smoothSolver:  Solving for Uz, Initial residual = 0.0478462, Final residual = 1.81951e-05, No Iterations 2
GAMG:  Solving for p, Initial residual = 0.177611, Final residual = 0.0145141, No Iterations 2
GAMG:  Solving for p, Initial residual = 0.197062, Final residual = 0.013955, No Iterations 1
GAMG:  Solving for p, Initial residual = 0.0786233, Final residual = 0.00387744, No Iterations 2
GAMG:  Solving for p, Initial residual = 0.0608909, Final residual = 0.00449137, No Iterations 1
GAMG:  Solving for p, Initial residual = 0.0263987, Final residual = 0.00132798, No Iterations 2
time step continuity errors : sum local = 0.419447, global = -0.0283739, cumulative = -0.431668
ExecutionTime = 3.08 s  ClockTime = 3 s

Time = 28

smoothSolver:  Solving for Ux, Initial residual = 0.0322053, Final residual = 1.4575e-05, No Iterations 2
smoothSolver:  Solving for Uy, Initial residual = 0.0310354, Final residual = 1.4141e-05, No Iterations 2
smoothSolver:  Solving for Uz, Initial residual = 0.0325036, Final residual = 1.42067e-05, No Iterations 2
GAMG:  Solving for p, Initial residual = 0.254162, Final residual = 0.0198501, No Iterations 2
GAMG:  Solving for p, Initial residual = 0.167616, Final residual = 0.0121409, No Iterations 1
GAMG:  Solving for p, Initial residual = 0.0652952, Final residual = 0.00332003, No Iterations 2
GAMG:  Solving for p, Initial residual = 0.0529732, Final residual = 0.00407437, No Iterations 1
GAMG:  Solving for p, Initial residual = 0.0236854, Final residual = 0.00123108, No Iterations 2
time step continuity errors : sum local = 0.414717, global = -0.0273173, cumulative = -0.458986
ExecutionTime = 3.19 s  ClockTime = 3 s

Time = 29

smoothSolver:  Solving for Ux, Initial residual = 0.0301866, Final residual = 1.37919e-05, No Iterations 2
smoothSolver:  Solving for Uy, Initial residual = 0.0289356, Final residual = 1.33691e-05, No Iterations 2
smoothSolver:  Solving for Uz, Initial residual = 0.0354579, Final residual = 1.44693e-05, No Iterations 2
GAMG:  Solving for p, Initial residual = 0.232737, Final residual = 0.0151669, No Iterations 2
GAMG:  Solving for p, Initial residual = 0.134229, Final residual = 0.0106598, No Iterations 1
GAMG:  Solving for p, Initial residual = 0.0536107, Final residual = 0.00296925, No Iterations 2
GAMG:  Solving for p, Initial residual = 0.0474116, Final residual = 0.00387648, No Iterations 1
GAMG:  Solving for p, Initial residual = 0.0221601, Final residual = 0.00119345, No Iterations 2
time step continuity errors : sum local = 0.361388, global = -0.0211789, cumulative = -0.480164
ExecutionTime = 3.29 s  ClockTime = 3 s

Time = 30

smoothSolver:  Solving for Ux, Initial residual = 0.0272459, Final residual = 1.27655e-05, No Iterations 2
smoothSolver:  Solving for Uy, Initial residual = 0.026233, Final residual = 1.24096e-05, No Iterations 2
smoothSolver:  Solving for Uz, Initial residual = 0.0441732, Final residual = 1.61851e-05, No Iterations 2
GAMG:  Solving for p, Initial residual = 0.185475, Final residual = 0.00922825, No Iterations 2
GAMG:  Solving for p, Initial residual = 0.108218, Final residual = 0.00958996, No Iterations 1
GAMG:  Solving for p, Initial residual = 0.0480921, Final residual = 0.00266958, No Iterations 2
GAMG:  Solving for p, Initial residual = 0.0411523, Final residual = 0.00368747, No Iterations 1
GAMG:  Solving for p, Initial residual = 0.0206943, Final residual = 0.00119957, No Iterations 2
time step continuity errors : sum local = 0.274852, global = -0.0160734, cumulative = -0.496238
ExecutionTime = 3.4 s  ClockTime = 4 s

Time = 31

smoothSolver:  Solving for Ux, Initial residual = 0.024182, Final residual = 1.15768e-05, No Iterations 2
smoothSolver:  Solving for Uy, Initial residual = 0.0236119, Final residual = 1.14018e-05, No Iterations 2
smoothSolver:  Solving for Uz, Initial residual = 0.0472392, Final residual = 1.65503e-05, No Iterations 2
GAMG:  Solving for p, Initial residual = 0.163973, Final residual = 0.00738002, No Iterations 2
GAMG:  Solving for p, Initial residual = 0.110453, Final residual = 0.00948552, No Iterations 1
GAMG:  Solving for p, Initial residual = 0.0464511, Final residual = 0.00218863, No Iterations 2
GAMG:  Solving for p, Initial residual = 0.0347162, Final residual = 0.0033667, No Iterations 1
GAMG:  Solving for p, Initial residual = 0.0185519, Final residual = 0.000926809, No Iterations 2
time step continuity errors : sum local = 0.147559, global = 0.00747136, cumulative = -0.488766
ExecutionTime = 3.5 s  ClockTime = 4 s

Time = 32

smoothSolver:  Solving for Ux, Initial residual = 0.022089, Final residual = 1.06067e-05, No Iterations 2
smoothSolver:  Solving for Uy, Initial residual = 0.0219005, Final residual = 1.05487e-05, No Iterations 2
smoothSolver:  Solving for Uz, Initial residual = 0.0430707, Final residual = 1.49063e-05, No Iterations 2
GAMG:  Solving for p, Initial residual = 0.153026, Final residual = 0.00833916, No Iterations 2
GAMG:  Solving for p, Initial residual = 0.180094, Final residual = 0.0131845, No Iterations 1
GAMG:  Solving for p, Initial residual = 0.0745428, Final residual = 0.0039053, No Iterations 2
GAMG:  Solving for p, Initial residual = 0.0569828, Final residual = 0.00454336, No Iterations 1
GAMG:  Solving for p, Initial residual = 0.0256109, Final residual = 0.00143249, No Iterations 2
time step continuity errors : sum local = 0.153013, global = 0.00865524, cumulative = -0.480111
ExecutionTime = 3.61 s  ClockTime = 4 s

Time = 33

smoothSolver:  Solving for Ux, Initial residual = 0.0213569, Final residual = 1.00465e-05, No Iterations 2
smoothSolver:  Solving for Uy, Initial residual = 0.0213649, Final residual = 1.00047e-05, No Iterations 2
smoothSolver:  Solving for Uz, Initial residual = 0.0334207, Final residual = 1.20673e-05, No Iterations 2
GAMG:  Solving for p, Initial residual = 0.152739, Final residual = 0.00989274, No Iterations 2
GAMG:  Solving for p, Initial residual = 0.17475, Final residual = 0.0123832, No Iterations 1
GAMG:  Solving for p, Initial residual = 0.0692508, Final residual = 0.00351613, No Iterations 2
GAMG:  Solving for p, Initial residual = 0.0548092, Final residual = 0.00407288, No Iterations 1
GAMG:  Solving for p, Initial residual = 0.0238674, Final residual = 0.00124079, No Iterations 2
time step continuity errors : sum local = 0.178297, global = 0.0105123, cumulative = -0.469599
ExecutionTime = 3.71 s  ClockTime = 4 s

Time = 34

smoothSolver:  Solving for Ux, Initial residual = 0.0214674, Final residual = 9.70843e-06, No Iterations 2
smoothSolver:  Solving for Uy, Initial residual = 0.0215087, Final residual = 9.76325e-06, No Iterations 2
smoothSolver:  Solving for Uz, Initial residual = 0.0239802, Final residual = 9.43882e-06, No Iterations 2
GAMG:  Solving for p, Initial residual = 0.170507, Final residual = 0.0117703, No Iterations 2
GAMG:  Solving for p, Initial residual = 0.15382, Final residual = 0.0109218, No Iterations 1
GAMG:  Solving for p, Initial residual = 0.0622027, Final residual = 0.00312812, No Iterations 2
GAMG:  Solving for p, Initial residual = 0.0508902, Final residual = 0.00381721, No Iterations 1
GAMG:  Solving for p, Initial residual = 0.0225873, Final residual = 0.00116164, No Iterations 2
time step continuity errors : sum local = 0.192299, global = 0.0124587, cumulative = -0.45714
ExecutionTime = 3.82 s  ClockTime = 4 s

Time = 35

smoothSolver:  Solving for Ux, Initial residual = 0.0215976, Final residual = 9.50812e-06, No Iterations 2
smoothSolver:  Solving for Uy, Initial residual = 0.0215695, Final residual = 9.56939e-06, No Iterations 2
smoothSolver:  Solving for Uz, Initial residual = 0.0194047, Final residual = 8.11111e-06, No Iterations 2
GAMG:  Solving for p, Initial residual = 0.221766, Final residual = 0.0138425, No Iterations 2
GAMG:  Solving for p, Initial residual = 0.132635, Final residual = 0.00975485, No Iterations 1
GAMG:  Solving for p, Initial residual = 0.0528113, Final residual = 0.0027541, No Iterations 2
GAMG:  Solving for p, Initial residual = 0.045692, Final residual = 0.00353137, No Iterations 1
GAMG:  Solving for p, Initial residual = 0.0209633, Final residual = 0.001095, No Iterations 2
time step continuity errors : sum local = 0.181961, global = 0.0115723, cumulative = -0.445568
ExecutionTime = 3.92 s  ClockTime = 4 s

Time = 36

smoothSolver:  Solving for Ux, Initial residual = 0.0212275, Final residual = 9.2338e-06, No Iterations 2
smoothSolver:  Solving for Uy, Initial residual = 0.0211664, Final residual = 9.30889e-06, No Iterations 2
smoothSolver:  Solving for Uz, Initial residual = 0.0196945, Final residual = 7.97388e-06, No Iterations 2
GAMG:  Solving for p, Initial residual = 0.189743, Final residual = 0.0101075, No Iterations 2
GAMG:  Solving for p, Initial residual = 0.108999, Final residual = 0.00870069, No Iterations 1
GAMG:  Solving for p, Initial residual = 0.0457131, Final residual = 0.00256688, No Iterations 2
GAMG:  Solving for p, Initial residual = 0.0422223, Final residual = 0.00342065, No Iterations 1
GAMG:  Solving for p, Initial residual = 0.019969, Final residual = 0.00107709, No Iterations 2
time step continuity errors : sum local = 0.156863, global = 0.00920787, cumulative = -0.43636
ExecutionTime = 4.02 s  ClockTime = 4 s

Time = 37

smoothSolver:  Solving for Ux, Initial residual = 0.0204427, Final residual = 8.87881e-06, No Iterations 2
smoothSolver:  Solving for Uy, Initial residual = 0.0203542, Final residual = 8.89401e-06, No Iterations 2
smoothSolver:  Solving for Uz, Initial residual = 0.0215894, Final residual = 8.1321e-06, No Iterations 2
GAMG:  Solving for p, Initial residual = 0.164944, Final residual = 0.00754867, No Iterations 2
GAMG:  Solving for p, Initial residual = 0.0952447, Final residual = 0.0083751, No Iterations 1
GAMG:  Solving for p, Initial residual = 0.0418171, Final residual = 0.00208923, No Iterations 2
GAMG:  Solving for p, Initial residual = 0.0343845, Final residual = 0.00309492, No Iterations 1
GAMG:  Solving for p, Initial residual = 0.0178919, Final residual = 0.000991023, No Iterations 2
time step continuity errors : sum local = 0.113058, global = 0.00740768, cumulative = -0.428952
ExecutionTime = 4.13 s  ClockTime = 4 s

Time = 38

smoothSolver:  Solving for Ux, Initial residual = 0.0195593, Final residual = 8.49921e-06, No Iterations 2
smoothSolver:  Solving for Uy, Initial residual = 0.0194354, Final residual = 8.44816e-06, No Iterations 2
smoothSolver:  Solving for Uz, Initial residual = 0.0219782, Final residual = 8.02666e-06, No Iterations 2
GAMG:  Solving for p, Initial residual = 0.152046, Final residual = 0.0064839, No Iterations 2
GAMG:  Solving for p, Initial residual = 0.102789, Final residual = 0.00839088, No Iterations 1
GAMG:  Solving for p, Initial residual = 0.0419012, Final residual = 0.00193162, No Iterations 2
GAMG:  Solving for p, Initial residual = 0.0317964, Final residual = 0.00292527, No Iterations 1
GAMG:  Solving for p, Initial residual = 0.0165281, Final residual = 0.000790283, No Iterations 2
time step continuity errors : sum local = 0.0670907, global = -0.00677735, cumulative = -0.43573
ExecutionTime = 4.23 s  ClockTime = 4 s

Time = 39

smoothSolver:  Solving for Ux, Initial residual = 0.0188577, Final residual = 8.12717e-06, No Iterations 2
smoothSolver:  Solving for Uy, Initial residual = 0.0186174, Final residual = 8.06585e-06, No Iterations 2
smoothSolver:  Solving for Uz, Initial residual = 0.0203657, Final residual = 7.43562e-06, No Iterations 2
GAMG:  Solving for p, Initial residual = 0.144741, Final residual = 0.00709389, No Iterations 2
GAMG:  Solving for p, Initial residual = 0.135489, Final residual = 0.00984133, No Iterations 1
GAMG:  Solving for p, Initial residual = 0.0507509, Final residual = 0.00260854, No Iterations 2
GAMG:  Solving for p, Initial residual = 0.0384694, Final residual = 0.00307154, No Iterations 1
GAMG:  Solving for p, Initial residual = 0.0175975, Final residual = 0.00097553, No Iterations 2
time step continuity errors : sum local = 0.0742819, global = -0.00420553, cumulative = -0.439935
ExecutionTime = 4.34 s  ClockTime = 4 s

Time = 40

smoothSolver:  Solving for Ux, Initial residual = 0.018348, Final residual = 7.82069e-06, No Iterations 2
smoothSolver:  Solving for Uy, Initial residual = 0.017943, Final residual = 7.74278e-06, No Iterations 2
smoothSolver:  Solving for Uz, Initial residual = 0.0175416, Final residual = 6.61051e-06, No Iterations 2
GAMG:  Solving for p, Initial residual = 0.145084, Final residual = 0.00782502, No Iterations 2
GAMG:  Solving for p, Initial residual = 0.118283, Final residual = 0.00839856, No Iterations 1
GAMG:  Solving for p, Initial residual = 0.0456101, Final residual = 0.00236024, No Iterations 2
GAMG:  Solving for p, Initial residual = 0.0379591, Final residual = 0.00287591, No Iterations 1
GAMG:  Solving for p, Initial residual = 0.0168603, Final residual = 0.000911543, No Iterations 2
time step continuity errors : sum local = 0.0840614, global = -0.00472552, cumulative = -0.444661
ExecutionTime = 4.44 s  ClockTime = 5 s

Time = 41

smoothSolver:  Solving for Ux, Initial residual = 0.0178983, Final residual = 7.54686e-06, No Iterations 2
smoothSolver:  Solving for Uy, Initial residual = 0.0173787, Final residual = 7.45701e-06, No Iterations 2
smoothSolver:  Solving for Uz, Initial residual = 0.0152779, Final residual = 5.9887e-06, No Iterations 2
GAMG:  Solving for p, Initial residual = 0.155599, Final residual = 0.00831455, No Iterations 2
GAMG:  Solving for p, Initial residual = 0.104651, Final residual = 0.00747444, No Iterations 1
GAMG:  Solving for p, Initial residual = 0.04075, Final residual = 0.00213334, No Iterations 2
GAMG:  Solving for p, Initial residual = 0.0356648, Final residual = 0.00274124, No Iterations 1
GAMG:  Solving for p, Initial residual = 0.0162057, Final residual = 0.000865787, No Iterations 2
time step continuity errors : sum local = 0.0865787, global = -0.00546627, cumulative = -0.450127
ExecutionTime = 4.55 s  ClockTime = 5 s

Time = 42

smoothSolver:  Solving for Ux, Initial residual = 0.0173216, Final residual = 7.31702e-06, No Iterations 2
smoothSolver:  Solving for Uy, Initial residual = 0.0168044, Final residual = 7.20641e-06, No Iterations 2
smoothSolver:  Solving for Uz, Initial residual = 0.0145316, Final residual = 5.75984e-06, No Iterations 2
GAMG:  Solving for p, Initial residual = 0.169467, Final residual = 0.00823456, No Iterations 2
GAMG:  Solving for p, Initial residual = 0.0895673, Final residual = 0.00669296, No Iterations 1
GAMG:  Solving for p, Initial residual = 0.0351536, Final residual = 0.00192544, No Iterations 2
GAMG:  Solving for p, Initial residual = 0.0326293, Final residual = 0.00256164, No Iterations 1
GAMG:  Solving for p, Initial residual = 0.01519, Final residual = 0.000808288, No Iterations 2
time step continuity errors : sum local = 0.0793357, global = -0.0051192, cumulative = -0.455246
ExecutionTime = 4.65 s  ClockTime = 5 s

Time = 43

smoothSolver:  Solving for Ux, Initial residual = 0.0166282, Final residual = 7.02964e-06, No Iterations 2
smoothSolver:  Solving for Uy, Initial residual = 0.0161994, Final residual = 6.92703e-06, No Iterations 2
smoothSolver:  Solving for Uz, Initial residual = 0.0147983, Final residual = 5.69676e-06, No Iterations 2
GAMG:  Solving for p, Initial residual = 0.146409, Final residual = 0.00602693, No Iterations 2
GAMG:  Solving for p, Initial residual = 0.0751724, Final residual = 0.00586593, No Iterations 1
GAMG:  Solving for p, Initial residual = 0.0311848, Final residual = 0.00171153, No Iterations 2
GAMG:  Solving for p, Initial residual = 0.0287549, Final residual = 0.00232887, No Iterations 1
GAMG:  Solving for p, Initial residual = 0.0137652, Final residual = 0.000748566, No Iterations 2
time step continuity errors : sum local = 0.0658552, global = -0.00434228, cumulative = -0.459589
ExecutionTime = 4.76 s  ClockTime = 5 s

Time = 44

smoothSolver:  Solving for Ux, Initial residual = 0.0158881, Final residual = 6.75537e-06, No Iterations 2
smoothSolver:  Solving for Uy, Initial residual = 0.0155951, Final residual = 6.64342e-06, No Iterations 2
smoothSolver:  Solving for Uz, Initial residual = 0.0149987, Final residual = 5.62527e-06, No Iterations 2
GAMG:  Solving for p, Initial residual = 0.132885, Final residual = 0.00513526, No Iterations 2
GAMG:  Solving for p, Initial residual = 0.0670314, Final residual = 0.00560075, No Iterations 1
GAMG:  Solving for p, Initial residual = 0.0279581, Final residual = 0.00132107, No Iterations 2
GAMG:  Solving for p, Initial residual = 0.0219556, Final residual = 0.00194055, No Iterations 1
GAMG:  Solving for p, Initial residual = 0.0113959, Final residual = 0.000589147, No Iterations 2
time step continuity errors : sum local = 0.0440123, global = -0.00350422, cumulative = -0.463093
ExecutionTime = 4.86 s  ClockTime = 5 s

Time = 45

smoothSolver:  Solving for Ux, Initial residual = 0.015258, Final residual = 6.48345e-06, No Iterations 2
smoothSolver:  Solving for Uy, Initial residual = 0.0151001, Final residual = 6.40368e-06, No Iterations 2
smoothSolver:  Solving for Uz, Initial residual = 0.0146308, Final residual = 5.40102e-06, No Iterations 2
GAMG:  Solving for p, Initial residual = 0.125063, Final residual = 0.00450918, No Iterations 2
GAMG:  Solving for p, Initial residual = 0.0704837, Final residual = 0.00539284, No Iterations 1
GAMG:  Solving for p, Initial residual = 0.0275248, Final residual = 0.00125605, No Iterations 2
GAMG:  Solving for p, Initial residual = 0.0207223, Final residual = 0.00177531, No Iterations 1
GAMG:  Solving for p, Initial residual = 0.0103176, Final residual = 0.000478603, No Iterations 2
time step continuity errors : sum local = 0.0295183, global = 0.00412196, cumulative = -0.458971
ExecutionTime = 4.97 s  ClockTime = 5 s

Time = 46

smoothSolver:  Solving for Ux, Initial residual = 0.0148026, Final residual = 6.27678e-06, No Iterations 2
smoothSolver:  Solving for Uy, Initial residual = 0.014741, Final residual = 6.18444e-06, No Iterations 2
smoothSolver:  Solving for Uz, Initial residual = 0.0138072, Final residual = 5.12186e-06, No Iterations 2
GAMG:  Solving for p, Initial residual = 0.120326, Final residual = 0.0117631, No Iterations 1
GAMG:  Solving for p, Initial residual = 0.0607682, Final residual = 0.00345073, No Iterations 2
GAMG:  Solving for p, Initial residual = 0.0452184, Final residual = 0.00333254, No Iterations 1
GAMG:  Solving for p, Initial residual = 0.018575, Final residual = 0.000958898, No Iterations 2
GAMG:  Solving for p, Initial residual = 0.0158045, Final residual = 0.00127044, No Iterations 1
time step continuity errors : sum local = 0.0770151, global = 0.0139834, cumulative = -0.444987
ExecutionTime = 5.06 s  ClockTime = 5 s

Time = 47

smoothSolver:  Solving for Ux, Initial residual = 0.0145482, Final residual = 6.11433e-06, No Iterations 2
smoothSolver:  Solving for Uy, Initial residual = 0.0145269, Final residual = 6.03501e-06, No Iterations 2
smoothSolver:  Solving for Uz, Initial residual = 0.012841, Final residual = 4.82765e-06, No Iterations 2
GAMG:  Solving for p, Initial residual = 0.119403, Final residual = 0.0118388, No Iterations 1
GAMG:  Solving for p, Initial residual = 0.0651564, Final residual = 0.00381738, No Iterations 2
GAMG:  Solving for p, Initial residual = 0.0428864, Final residual = 0.00313673, No Iterations 1
GAMG:  Solving for p, Initial residual = 0.0179643, Final residual = 0.000951804, No Iterations 2
GAMG:  Solving for p, Initial residual = 0.0171461, Final residual = 0.00131776, No Iterations 1
time step continuity errors : sum local = 0.0886213, global = 0.0229916, cumulative = -0.421996
ExecutionTime = 5.17 s  ClockTime = 5 s

Time = 48

smoothSolver:  Solving for Ux, Initial residual = 0.0143833, Final residual = 5.97921e-06, No Iterations 2
smoothSolver:  Solving for Uy, Initial residual = 0.0143474, Final residual = 5.91467e-06, No Iterations 2
smoothSolver:  Solving for Uz, Initial residual = 0.0120656, Final residual = 4.57912e-06, No Iterations 2
GAMG:  Solving for p, Initial residual = 0.122817, Final residual = 0.0117475, No Iterations 1
GAMG:  Solving for p, Initial residual = 0.0580774, Final residual = 0.00321959, No Iterations 2
GAMG:  Solving for p, Initial residual = 0.0412128, Final residual = 0.0030808, No Iterations 1
GAMG:  Solving for p, Initial residual = 0.0176607, Final residual = 0.000944365, No Iterations 2
GAMG:  Solving for p, Initial residual = 0.0171941, Final residual = 0.0013465, No Iterations 1
time step continuity errors : sum local = 0.0940422, global = 0.0275119, cumulative = -0.394484
ExecutionTime = 5.26 s  ClockTime = 5 s

Time = 49

smoothSolver:  Solving for Ux, Initial residual = 0.0142125, Final residual = 5.85886e-06, No Iterations 2
smoothSolver:  Solving for Uy, Initial residual = 0.0141508, Final residual = 5.78684e-06, No Iterations 2
smoothSolver:  Solving for Uz, Initial residual = 0.0116409, Final residual = 4.43392e-06, No Iterations 2
GAMG:  Solving for p, Initial residual = 0.126635, Final residual = 0.0116906, No Iterations 1
GAMG:  Solving for p, Initial residual = 0.0502628, Final residual = 0.00256727, No Iterations 2
GAMG:  Solving for p, Initial residual = 0.0374786, Final residual = 0.00291754, No Iterations 1
GAMG:  Solving for p, Initial residual = 0.016608, Final residual = 0.000886991, No Iterations 2
GAMG:  Solving for p, Initial residual = 0.0160678, Final residual = 0.00129427, No Iterations 1
time step continuity errors : sum local = 0.0883846, global = 0.0278371, cumulative = -0.366647
ExecutionTime = 5.36 s  ClockTime = 6 s

Time = 50

smoothSolver:  Solving for Ux, Initial residual = 0.0139894, Final residual = 5.74108e-06, No Iterations 2
smoothSolver:  Solving for Uy, Initial residual = 0.0139069, Final residual = 5.66187e-06, No Iterations 2
smoothSolver:  Solving for Uz, Initial residual = 0.0114808, Final residual = 4.33161e-06, No Iterations 2
GAMG:  Solving for p, Initial residual = 0.117535, Final residual = 0.0111595, No Iterations 1
GAMG:  Solving for p, Initial residual = 0.0439354, Final residual = 0.00199362, No Iterations 2
GAMG:  Solving for p, Initial residual = 0.0312657, Final residual = 0.00255201, No Iterations 1
GAMG:  Solving for p, Initial residual = 0.0146383, Final residual = 0.000775953, No Iterations 2
GAMG:  Solving for p, Initial residual = 0.0138899, Final residual = 0.00115216, No Iterations 1
time step continuity errors : sum local = 0.0734357, global = 0.0239257, cumulative = -0.342721
ExecutionTime = 5.46 s  ClockTime = 6 s

Time = 51

smoothSolver:  Solving for Ux, Initial residual = 0.0137411, Final residual = 5.61806e-06, No Iterations 2
smoothSolver:  Solving for Uy, Initial residual = 0.0136455, Final residual = 5.48984e-06, No Iterations 2
smoothSolver:  Solving for Uz, Initial residual = 0.0113985, Final residual = 4.24416e-06, No Iterations 2
GAMG:  Solving for p, Initial residual = 0.110555, Final residual = 0.01053, No Iterations 1
GAMG:  Solving for p, Initial residual = 0.0401073, Final residual = 0.0017354, No Iterations 2
GAMG:  Solving for p, Initial residual = 0.0260004, Final residual = 0.00225585, No Iterations 1
GAMG:  Solving for p, Initial residual = 0.0124988, Final residual = 0.000586372, No Iterations 2
GAMG:  Solving for p, Initial residual = 0.0103005, Final residual = 0.000907835, No Iterations 1
time step continuity errors : sum local = 0.0526732, global = 0.0146891, cumulative = -0.328032
ExecutionTime = 5.56 s  ClockTime = 6 s

Time = 52

smoothSolver:  Solving for Ux, Initial residual = 0.0134872, Final residual = 5.48539e-06, No Iterations 2
smoothSolver:  Solving for Uy, Initial residual = 0.0133745, Final residual = 5.36366e-06, No Iterations 2
smoothSolver:  Solving for Uz, Initial residual = 0.0112559, Final residual = 4.15192e-06, No Iterations 2
GAMG:  Solving for p, Initial residual = 0.105972, Final residual = 0.00929279, No Iterations 1
GAMG:  Solving for p, Initial residual = 0.037399, Final residual = 0.00161046, No Iterations 2
GAMG:  Solving for p, Initial residual = 0.0253758, Final residual = 0.00199775, No Iterations 1
GAMG:  Solving for p, Initial residual = 0.0111921, Final residual = 0.000480014, No Iterations 2
GAMG:  Solving for p, Initial residual = 0.00830233, Final residual = 0.000735756, No Iterations 1
time step continuity errors : sum local = 0.0387176, global = -0.000769756, cumulative = -0.328802
ExecutionTime = 5.65 s  ClockTime = 6 s

Time = 53

smoothSolver:  Solving for Ux, Initial residual = 0.0132546, Final residual = 5.34667e-06, No Iterations 2
smoothSolver:  Solving for Uy, Initial residual = 0.0131224, Final residual = 5.21874e-06, No Iterations 2
smoothSolver:  Solving for Uz, Initial residual = 0.0110332, Final residual = 4.03989e-06, No Iterations 2
GAMG:  Solving for p, Initial residual = 0.103104, Final residual = 0.00808555, No Iterations 1
GAMG:  Solving for p, Initial residual = 0.0364619, Final residual = 0.00173638, No Iterations 2
GAMG:  Solving for p, Initial residual = 0.0260518, Final residual = 0.00191037, No Iterations 1
GAMG:  Solving for p, Initial residual = 0.0105888, Final residual = 0.000505751, No Iterations 2
GAMG:  Solving for p, Initial residual = 0.00847975, Final residual = 0.000697073, No Iterations 1
time step continuity errors : sum local = 0.0365637, global = -0.00618399, cumulative = -0.334986
ExecutionTime = 5.75 s  ClockTime = 6 s

Time = 54

smoothSolver:  Solving for Ux, Initial residual = 0.0130265, Final residual = 5.22137e-06, No Iterations 2
smoothSolver:  Solving for Uy, Initial residual = 0.0128848, Final residual = 5.1013e-06, No Iterations 2
smoothSolver:  Solving for Uz, Initial residual = 0.0107507, Final residual = 3.95345e-06, No Iterations 2
GAMG:  Solving for p, Initial residual = 0.101813, Final residual = 0.00756639, No Iterations 1
GAMG:  Solving for p, Initial residual = 0.0362862, Final residual = 0.00175168, No Iterations 2
GAMG:  Solving for p, Initial residual = 0.0254318, Final residual = 0.00182177, No Iterations 1
GAMG:  Solving for p, Initial residual = 0.0102591, Final residual = 0.000514745, No Iterations 2
GAMG:  Solving for p, Initial residual = 0.00913061, Final residual = 0.000717003, No Iterations 1
time step continuity errors : sum local = 0.0393782, global = -0.010508, cumulative = -0.345494
ExecutionTime = 5.86 s  ClockTime = 6 s

Time = 55

smoothSolver:  Solving for Ux, Initial residual = 0.0127975, Final residual = 5.07086e-06, No Iterations 2
smoothSolver:  Solving for Uy, Initial residual = 0.0126617, Final residual = 4.99174e-06, No Iterations 2
smoothSolver:  Solving for Uz, Initial residual = 0.0104764, Final residual = 3.84234e-06, No Iterations 2
GAMG:  Solving for p, Initial residual = 0.101838, Final residual = 0.00748345, No Iterations 1
GAMG:  Solving for p, Initial residual = 0.0341939, Final residual = 0.00159062, No Iterations 2
GAMG:  Solving for p, Initial residual = 0.0241021, Final residual = 0.00175428, No Iterations 1
GAMG:  Solving for p, Initial residual = 0.0100042, Final residual = 0.000525844, No Iterations 2
GAMG:  Solving for p, Initial residual = 0.0094523, Final residual = 0.000749985, No Iterations 1
time step continuity errors : sum local = 0.041768, global = -0.0130085, cumulative = -0.358502
ExecutionTime = 5.95 s  ClockTime = 6 s

Time = 56

smoothSolver:  Solving for Ux, Initial residual = 0.0125554, Final residual = 4.95774e-06, No Iterations 2
smoothSolver:  Solving for Uy, Initial residual = 0.0124477, Final residual = 4.88758e-06, No Iterations 2
smoothSolver:  Solving for Uz, Initial residual = 0.010253, Final residual = 3.76489e-06, No Iterations 2
GAMG:  Solving for p, Initial residual = 0.100455, Final residual = 0.00752729, No Iterations 1
GAMG:  Solving for p, Initial residual = 0.0317246, Final residual = 0.00137649, No Iterations 2
GAMG:  Solving for p, Initial residual = 0.0215012, Final residual = 0.00162182, No Iterations 1
GAMG:  Solving for p, Initial residual = 0.00933653, Final residual = 0.000501998, No Iterations 2
GAMG:  Solving for p, Initial residual = 0.00903991, Final residual = 0.000734435, No Iterations 1
time step continuity errors : sum local = 0.0402895, global = -0.0133071, cumulative = -0.371809
ExecutionTime = 6.06 s  ClockTime = 6 s

Time = 57

smoothSolver:  Solving for Ux, Initial residual = 0.0123037, Final residual = 4.84027e-06, No Iterations 2
smoothSolver:  Solving for Uy, Initial residual = 0.012241, Final residual = 4.80297e-06, No Iterations 2
smoothSolver:  Solving for Uz, Initial residual = 0.0100712, Final residual = 3.68056e-06, No Iterations 2
GAMG:  Solving for p, Initial residual = 0.0961148, Final residual = 0.00732046, No Iterations 1
GAMG:  Solving for p, Initial residual = 0.0295485, Final residual = 0.00113172, No Iterations 2
GAMG:  Solving for p, Initial residual = 0.0182613, Final residual = 0.00141782, No Iterations 1
GAMG:  Solving for p, Initial residual = 0.00832152, Final residual = 0.000423014, No Iterations 2
GAMG:  Solving for p, Initial residual = 0.00766304, Final residual = 0.000640176, No Iterations 1
time step continuity errors : sum local = 0.0338651, global = -0.0115363, cumulative = -0.383346
ExecutionTime = 6.15 s  ClockTime = 6 s

Time = 58

smoothSolver:  Solving for Ux, Initial residual = 0.0120623, Final residual = 4.74286e-06, No Iterations 2
smoothSolver:  Solving for Uy, Initial residual = 0.0120442, Final residual = 4.71468e-06, No Iterations 2
smoothSolver:  Solving for Uz, Initial residual = 0.0099165, Final residual = 3.6156e-06, No Iterations 2
GAMG:  Solving for p, Initial residual = 0.0923904, Final residual = 0.0068724, No Iterations 1
GAMG:  Solving for p, Initial residual = 0.0276914, Final residual = 0.00103379, No Iterations 2
GAMG:  Solving for p, Initial residual = 0.0157788, Final residual = 0.00125496, No Iterations 1
GAMG:  Solving for p, Initial residual = 0.00723485, Final residual = 0.000324833, No Iterations 2
GAMG:  Solving for p, Initial residual = 0.00577434, Final residual = 0.000497133, No Iterations 1
time step continuity errors : sum local = 0.0251763, global = -0.00674065, cumulative = -0.390086
ExecutionTime = 6.25 s  ClockTime = 6 s

Time = 59

smoothSolver:  Solving for Ux, Initial residual = 0.0118525, Final residual = 4.63929e-06, No Iterations 2
smoothSolver:  Solving for Uy, Initial residual = 0.0118596, Final residual = 4.63225e-06, No Iterations 2
smoothSolver:  Solving for Uz, Initial residual = 0.00976084, Final residual = 3.53371e-06, No Iterations 2
GAMG:  Solving for p, Initial residual = 0.089232, Final residual = 0.0062616, No Iterations 1
GAMG:  Solving for p, Initial residual = 0.0260029, Final residual = 0.00255827, No Iterations 1
GAMG:  Solving for p, Initial residual = 0.0124119, Final residual = 0.000563659, No Iterations 2
GAMG:  Solving for p, Initial residual = 0.00940901, Final residual = 0.000693246, No Iterations 1
GAMG:  Solving for p, Initial residual = 0.00418118, Final residual = 0.000181355, No Iterations 2
time step continuity errors : sum local = 0.00881789, global = 0.00154278, cumulative = -0.388544
ExecutionTime = 6.36 s  ClockTime = 6 s

Time = 60

smoothSolver:  Solving for Ux, Initial residual = 0.0116826, Final residual = 4.55916e-06, No Iterations 2
smoothSolver:  Solving for Uy, Initial residual = 0.0116969, Final residual = 4.54191e-06, No Iterations 2
smoothSolver:  Solving for Uz, Initial residual = 0.00960931, Final residual = 3.46912e-06, No Iterations 2
GAMG:  Solving for p, Initial residual = 0.0870405, Final residual = 0.00568131, No Iterations 1
GAMG:  Solving for p, Initial residual = 0.024779, Final residual = 0.00229934, No Iterations 1
GAMG:  Solving for p, Initial residual = 0.0124376, Final residual = 0.000544887, No Iterations 2
GAMG:  Solving for p, Initial residual = 0.00938543, Final residual = 0.000653289, No Iterations 1
GAMG:  Solving for p, Initial residual = 0.00397199, Final residual = 0.00017665, No Iterations 2
time step continuity errors : sum local = 0.00849005, global = 0.000663347, cumulative = -0.38788
ExecutionTime = 6.45 s  ClockTime = 7 s

Time = 61

smoothSolver:  Solving for Ux, Initial residual = 0.0115475, Final residual = 4.50622e-06, No Iterations 2
smoothSolver:  Solving for Uy, Initial residual = 0.0115447, Final residual = 4.47469e-06, No Iterations 2
smoothSolver:  Solving for Uz, Initial residual = 0.00945871, Final residual = 3.41681e-06, No Iterations 2
GAMG:  Solving for p, Initial residual = 0.0857547, Final residual = 0.00540777, No Iterations 1
GAMG:  Solving for p, Initial residual = 0.0242173, Final residual = 0.0022588, No Iterations 1
GAMG:  Solving for p, Initial residual = 0.0125821, Final residual = 0.00124873, No Iterations 1
GAMG:  Solving for p, Initial residual = 0.00754531, Final residual = 0.000336728, No Iterations 2
GAMG:  Solving for p, Initial residual = 0.00621974, Final residual = 0.000439548, No Iterations 1
time step continuity errors : sum local = 0.0216715, global = 0.00583066, cumulative = -0.38205
ExecutionTime = 6.55 s  ClockTime = 7 s

Time = 62

smoothSolver:  Solving for Ux, Initial residual = 0.0114072, Final residual = 4.43113e-06, No Iterations 2
smoothSolver:  Solving for Uy, Initial residual = 0.0113996, Final residual = 4.40198e-06, No Iterations 2
smoothSolver:  Solving for Uz, Initial residual = 0.00931523, Final residual = 3.35738e-06, No Iterations 2
GAMG:  Solving for p, Initial residual = 0.0849002, Final residual = 0.00538859, No Iterations 1
GAMG:  Solving for p, Initial residual = 0.0237755, Final residual = 0.00221982, No Iterations 1
GAMG:  Solving for p, Initial residual = 0.0122693, Final residual = 0.000579599, No Iterations 2
GAMG:  Solving for p, Initial residual = 0.00952285, Final residual = 0.000697387, No Iterations 1
GAMG:  Solving for p, Initial residual = 0.00421914, Final residual = 0.000206836, No Iterations 2
time step continuity errors : sum local = 0.0102327, global = 0.000792117, cumulative = -0.381257
ExecutionTime = 6.64 s  ClockTime = 7 s

Time = 63

smoothSolver:  Solving for Ux, Initial residual = 0.0112627, Final residual = 4.37327e-06, No Iterations 2
smoothSolver:  Solving for Uy, Initial residual = 0.0112607, Final residual = 4.34878e-06, No Iterations 2
smoothSolver:  Solving for Uz, Initial residual = 0.00919108, Final residual = 3.31461e-06, No Iterations 2
GAMG:  Solving for p, Initial residual = 0.0837024, Final residual = 0.00541086, No Iterations 1
GAMG:  Solving for p, Initial residual = 0.023185, Final residual = 0.00216247, No Iterations 1
GAMG:  Solving for p, Initial residual = 0.0114295, Final residual = 0.00053635, No Iterations 2
GAMG:  Solving for p, Initial residual = 0.0089524, Final residual = 0.000688364, No Iterations 1
GAMG:  Solving for p, Initial residual = 0.00412484, Final residual = 0.000208378, No Iterations 2
time step continuity errors : sum local = 0.0102599, global = 0.000708533, cumulative = -0.380549
ExecutionTime = 6.75 s  ClockTime = 7 s

Time = 64

smoothSolver:  Solving for Ux, Initial residual = 0.0111127, Final residual = 4.31317e-06, No Iterations 2
smoothSolver:  Solving for Uy, Initial residual = 0.0111205, Final residual = 4.28828e-06, No Iterations 2
smoothSolver:  Solving for Uz, Initial residual = 0.00908121, Final residual = 3.269e-06, No Iterations 2
GAMG:  Solving for p, Initial residual = 0.081686, Final residual = 0.00529931, No Iterations 1
GAMG:  Solving for p, Initial residual = 0.0225427, Final residual = 0.00214382, No Iterations 1
GAMG:  Solving for p, Initial residual = 0.0104013, Final residual = 0.000457595, No Iterations 2
GAMG:  Solving for p, Initial residual = 0.00776626, Final residual = 0.000628123, No Iterations 1
GAMG:  Solving for p, Initial residual = 0.00376456, Final residual = 0.000188469, No Iterations 2
time step continuity errors : sum local = 0.00913877, global = 0.000613462, cumulative = -0.379935
ExecutionTime = 6.84 s  ClockTime = 7 s

Time = 65

smoothSolver:  Solving for Ux, Initial residual = 0.0109618, Final residual = 4.23632e-06, No Iterations 2
smoothSolver:  Solving for Uy, Initial residual = 0.0109924, Final residual = 4.21022e-06, No Iterations 2
smoothSolver:  Solving for Uz, Initial residual = 0.00898151, Final residual = 3.2185e-06, No Iterations 2
GAMG:  Solving for p, Initial residual = 0.0797709, Final residual = 0.00503338, No Iterations 1
GAMG:  Solving for p, Initial residual = 0.0218252, Final residual = 0.00209136, No Iterations 1
GAMG:  Solving for p, Initial residual = 0.0095758, Final residual = 0.000397173, No Iterations 2
GAMG:  Solving for p, Initial residual = 0.00649398, Final residual = 0.000555233, No Iterations 1
GAMG:  Solving for p, Initial residual = 0.00328844, Final residual = 0.000148173, No Iterations 2
time step continuity errors : sum local = 0.00706037, global = 0.000613385, cumulative = -0.379322
ExecutionTime = 6.94 s  ClockTime = 7 s

Time = 66

smoothSolver:  Solving for Ux, Initial residual = 0.0108154, Final residual = 4.16871e-06, No Iterations 2
smoothSolver:  Solving for Uy, Initial residual = 0.0108665, Final residual = 4.15208e-06, No Iterations 2
smoothSolver:  Solving for Uz, Initial residual = 0.00888125, Final residual = 3.17375e-06, No Iterations 2
GAMG:  Solving for p, Initial residual = 0.0781027, Final residual = 0.00471816, No Iterations 1
GAMG:  Solving for p, Initial residual = 0.0210902, Final residual = 0.00193467, No Iterations 1
GAMG:  Solving for p, Initial residual = 0.00896435, Final residual = 0.000350661, No Iterations 2
GAMG:  Solving for p, Initial residual = 0.00588831, Final residual = 0.000476554, No Iterations 1
GAMG:  Solving for p, Initial residual = 0.00288612, Final residual = 0.000120425, No Iterations 2
time step continuity errors : sum local = 0.00564968, global = -0.000872078, cumulative = -0.380194
ExecutionTime = 7.04 s  ClockTime = 7 s

Time = 67

smoothSolver:  Solving for Ux, Initial residual = 0.0106707, Final residual = 4.1053e-06, No Iterations 2
smoothSolver:  Solving for Uy, Initial residual = 0.0107398, Final residual = 4.08919e-06, No Iterations 2
smoothSolver:  Solving for Uz, Initial residual = 0.008772, Final residual = 3.12694e-06, No Iterations 2
GAMG:  Solving for p, Initial residual = 0.0768798, Final residual = 0.00444968, No Iterations 1
GAMG:  Solving for p, Initial residual = 0.0205157, Final residual = 0.00175721, No Iterations 1
GAMG:  Solving for p, Initial residual = 0.00855491, Final residual = 0.000351562, No Iterations 2
GAMG:  Solving for p, Initial residual = 0.00584264, Final residual = 0.000439639, No Iterations 1
GAMG:  Solving for p, Initial residual = 0.00268669, Final residual = 0.000121864, No Iterations 2
time step continuity errors : sum local = 0.0056523, global = -0.000448729, cumulative = -0.380643
ExecutionTime = 7.14 s  ClockTime = 7 s

Time = 68

smoothSolver:  Solving for Ux, Initial residual = 0.0105289, Final residual = 4.05885e-06, No Iterations 2
smoothSolver:  Solving for Uy, Initial residual = 0.0106203, Final residual = 4.0459e-06, No Iterations 2
smoothSolver:  Solving for Uz, Initial residual = 0.00865519, Final residual = 3.09319e-06, No Iterations 2
GAMG:  Solving for p, Initial residual = 0.0758052, Final residual = 0.00430317, No Iterations 1
GAMG:  Solving for p, Initial residual = 0.0200614, Final residual = 0.00166611, No Iterations 1
GAMG:  Solving for p, Initial residual = 0.00838726, Final residual = 0.000352789, No Iterations 2
GAMG:  Solving for p, Initial residual = 0.00593218, Final residual = 0.000437742, No Iterations 1
GAMG:  Solving for p, Initial residual = 0.00266699, Final residual = 0.000127396, No Iterations 2
time step continuity errors : sum local = 0.0059018, global = -0.000374409, cumulative = -0.381017
ExecutionTime = 7.24 s  ClockTime = 7 s

Time = 69

smoothSolver:  Solving for Ux, Initial residual = 0.0103918, Final residual = 3.99372e-06, No Iterations 2
smoothSolver:  Solving for Uy, Initial residual = 0.0105021, Final residual = 4.00465e-06, No Iterations 2
smoothSolver:  Solving for Uz, Initial residual = 0.00853069, Final residual = 3.04677e-06, No Iterations 2
GAMG:  Solving for p, Initial residual = 0.0749453, Final residual = 0.00424985, No Iterations 1
GAMG:  Solving for p, Initial residual = 0.0196669, Final residual = 0.00163785, No Iterations 1
GAMG:  Solving for p, Initial residual = 0.00824412, Final residual = 0.000348353, No Iterations 2
GAMG:  Solving for p, Initial residual = 0.00589351, Final residual = 0.000438099, No Iterations 1
GAMG:  Solving for p, Initial residual = 0.00267792, Final residual = 0.000132429, No Iterations 2
time step continuity errors : sum local = 0.00613628, global = -0.000401391, cumulative = -0.381419
ExecutionTime = 7.34 s  ClockTime = 7 s

Time = 70

smoothSolver:  Solving for Ux, Initial residual = 0.0102583, Final residual = 3.94318e-06, No Iterations 2
smoothSolver:  Solving for Uy, Initial residual = 0.0103892, Final residual = 3.96567e-06, No Iterations 2
smoothSolver:  Solving for Uz, Initial residual = 0.00840877, Final residual = 2.99817e-06, No Iterations 2
GAMG:  Solving for p, Initial residual = 0.0738548, Final residual = 0.00422903, No Iterations 1
GAMG:  Solving for p, Initial residual = 0.0192546, Final residual = 0.00162819, No Iterations 1
GAMG:  Solving for p, Initial residual = 0.00800126, Final residual = 0.00032751, No Iterations 2
GAMG:  Solving for p, Initial residual = 0.00560883, Final residual = 0.000427424, No Iterations 1
GAMG:  Solving for p, Initial residual = 0.00262927, Final residual = 0.00013151, No Iterations 2
time step continuity errors : sum local = 0.00607377, global = -0.000423313, cumulative = -0.381842
ExecutionTime = 7.44 s  ClockTime = 8 s

Time = 71

smoothSolver:  Solving for Ux, Initial residual = 0.010132, Final residual = 3.89712e-06, No Iterations 2
smoothSolver:  Solving for Uy, Initial residual = 0.0102719, Final residual = 3.90822e-06, No Iterations 2
smoothSolver:  Solving for Uz, Initial residual = 0.0082912, Final residual = 2.95007e-06, No Iterations 2
GAMG:  Solving for p, Initial residual = 0.072672, Final residual = 0.0041506, No Iterations 1
GAMG:  Solving for p, Initial residual = 0.0188667, Final residual = 0.00161029, No Iterations 1
GAMG:  Solving for p, Initial residual = 0.00770968, Final residual = 0.000296104, No Iterations 2
GAMG:  Solving for p, Initial residual = 0.00512574, Final residual = 0.000402979, No Iterations 1
GAMG:  Solving for p, Initial residual = 0.00249284, Final residual = 0.00011989, No Iterations 2
time step continuity errors : sum local = 0.00550729, global = -0.000470887, cumulative = -0.382313
ExecutionTime = 7.54 s  ClockTime = 8 s

Time = 72

smoothSolver:  Solving for Ux, Initial residual = 0.010011, Final residual = 3.83821e-06, No Iterations 2
smoothSolver:  Solving for Uy, Initial residual = 0.0101568, Final residual = 3.86787e-06, No Iterations 2
smoothSolver:  Solving for Uz, Initial residual = 0.00818131, Final residual = 2.91015e-06, No Iterations 2
GAMG:  Solving for p, Initial residual = 0.0713669, Final residual = 0.00402101, No Iterations 1
GAMG:  Solving for p, Initial residual = 0.0184518, Final residual = 0.0015664, No Iterations 1
GAMG:  Solving for p, Initial residual = 0.00740292, Final residual = 0.000277065, No Iterations 2
GAMG:  Solving for p, Initial residual = 0.00464718, Final residual = 0.000377183, No Iterations 1
GAMG:  Solving for p, Initial residual = 0.00230892, Final residual = 0.000103732, No Iterations 2
time step continuity errors : sum local = 0.00473876, global = -0.000495786, cumulative = -0.382809
ExecutionTime = 7.64 s  ClockTime = 8 s

Time = 73

smoothSolver:  Solving for Ux, Initial residual = 0.00989884, Final residual = 3.79105e-06, No Iterations 2
smoothSolver:  Solving for Uy, Initial residual = 0.0100471, Final residual = 3.81504e-06, No Iterations 2
smoothSolver:  Solving for Uz, Initial residual = 0.00807601, Final residual = 2.87154e-06, No Iterations 2
GAMG:  Solving for p, Initial residual = 0.0700519, Final residual = 0.00385178, No Iterations 1
GAMG:  Solving for p, Initial residual = 0.0179947, Final residual = 0.00149502, No Iterations 1
GAMG:  Solving for p, Initial residual = 0.00709459, Final residual = 0.00025596, No Iterations 2
GAMG:  Solving for p, Initial residual = 0.00431887, Final residual = 0.000346239, No Iterations 1
GAMG:  Solving for p, Initial residual = 0.00212842, Final residual = 8.98173e-05, No Iterations 2
time step continuity errors : sum local = 0.00408621, global = 0.000215928, cumulative = -0.382593
ExecutionTime = 7.73 s  ClockTime = 8 s

Time = 74

smoothSolver:  Solving for Ux, Initial residual = 0.00979363, Final residual = 3.75658e-06, No Iterations 2
smoothSolver:  Solving for Uy, Initial residual = 0.00994369, Final residual = 3.77111e-06, No Iterations 2
smoothSolver:  Solving for Uz, Initial residual = 0.00797785, Final residual = 2.83149e-06, No Iterations 2
GAMG:  Solving for p, Initial residual = 0.0688006, Final residual = 0.00370718, No Iterations 1
GAMG:  Solving for p, Initial residual = 0.0175656, Final residual = 0.00142126, No Iterations 1
GAMG:  Solving for p, Initial residual = 0.00683945, Final residual = 0.000239762, No Iterations 2
GAMG:  Solving for p, Initial residual = 0.00414229, Final residual = 0.000313708, No Iterations 1
GAMG:  Solving for p, Initial residual = 0.00198005, Final residual = 8.17713e-05, No Iterations 2
time step continuity errors : sum local = 0.00370836, global = 0.000515844, cumulative = -0.382077
ExecutionTime = 7.84 s  ClockTime = 8 s

Time = 75

smoothSolver:  Solving for Ux, Initial residual = 0.00969689, Final residual = 3.70687e-06, No Iterations 2
smoothSolver:  Solving for Uy, Initial residual = 0.00985425, Final residual = 3.73459e-06, No Iterations 2
smoothSolver:  Solving for Uz, Initial residual = 0.00788747, Final residual = 2.791e-06, No Iterations 2
GAMG:  Solving for p, Initial residual = 0.0674722, Final residual = 0.00360497, No Iterations 1
GAMG:  Solving for p, Initial residual = 0.0171666, Final residual = 0.00137141, No Iterations 1
GAMG:  Solving for p, Initial residual = 0.00664976, Final residual = 0.000655002, No Iterations 1
GAMG:  Solving for p, Initial residual = 0.00347618, Final residual = 0.000158582, No Iterations 2
GAMG:  Solving for p, Initial residual = 0.00262782, Final residual = 0.000200053, No Iterations 1
time step continuity errors : sum local = 0.00906108, global = 0.00140234, cumulative = -0.380675
ExecutionTime = 7.93 s  ClockTime = 8 s

Time = 76

smoothSolver:  Solving for Ux, Initial residual = 0.0096027, Final residual = 3.6597e-06, No Iterations 2
smoothSolver:  Solving for Uy, Initial residual = 0.00976131, Final residual = 3.70233e-06, No Iterations 2
smoothSolver:  Solving for Uz, Initial residual = 0.00779883, Final residual = 2.76108e-06, No Iterations 2
GAMG:  Solving for p, Initial residual = 0.0662679, Final residual = 0.00353828, No Iterations 1
GAMG:  Solving for p, Initial residual = 0.016829, Final residual = 0.00135045, No Iterations 1
GAMG:  Solving for p, Initial residual = 0.00652731, Final residual = 0.000643368, No Iterations 1
GAMG:  Solving for p, Initial residual = 0.00342493, Final residual = 0.0001556, No Iterations 2
GAMG:  Solving for p, Initial residual = 0.0026207, Final residual = 0.00019813, No Iterations 1
time step continuity errors : sum local = 0.00896032, global = 0.00182602, cumulative = -0.378848
ExecutionTime = 8.03 s  ClockTime = 8 s

Time = 77

smoothSolver:  Solving for Ux, Initial residual = 0.0095093, Final residual = 3.61239e-06, No Iterations 2
smoothSolver:  Solving for Uy, Initial residual = 0.00966949, Final residual = 3.66969e-06, No Iterations 2
smoothSolver:  Solving for Uz, Initial residual = 0.00771663, Final residual = 2.72832e-06, No Iterations 2
GAMG:  Solving for p, Initial residual = 0.0651183, Final residual = 0.00350054, No Iterations 1
GAMG:  Solving for p, Initial residual = 0.0165536, Final residual = 0.00134713, No Iterations 1
GAMG:  Solving for p, Initial residual = 0.00641495, Final residual = 0.000227288, No Iterations 2
GAMG:  Solving for p, Initial residual = 0.00389791, Final residual = 0.000290117, No Iterations 1
GAMG:  Solving for p, Initial residual = 0.00184169, Final residual = 8.16251e-05, No Iterations 2
time step continuity errors : sum local = 0.00368013, global = 0.000207886, cumulative = -0.378641
ExecutionTime = 8.13 s  ClockTime = 8 s

Time = 78

smoothSolver:  Solving for Ux, Initial residual = 0.00941807, Final residual = 3.58373e-06, No Iterations 2
smoothSolver:  Solving for Uy, Initial residual = 0.00957571, Final residual = 3.63551e-06, No Iterations 2
smoothSolver:  Solving for Uz, Initial residual = 0.00763693, Final residual = 2.70164e-06, No Iterations 2
GAMG:  Solving for p, Initial residual = 0.0641128, Final residual = 0.00344562, No Iterations 1
GAMG:  Solving for p, Initial residual = 0.0162722, Final residual = 0.00133452, No Iterations 1
GAMG:  Solving for p, Initial residual = 0.00628942, Final residual = 0.000209842, No Iterations 2
GAMG:  Solving for p, Initial residual = 0.00363899, Final residual = 0.000279254, No Iterations 1
GAMG:  Solving for p, Initial residual = 0.00176226, Final residual = 7.51913e-05, No Iterations 2
time step continuity errors : sum local = 0.00337907, global = 0.000216099, cumulative = -0.378424
ExecutionTime = 8.23 s  ClockTime = 8 s

Time = 79

smoothSolver:  Solving for Ux, Initial residual = 0.00932911, Final residual = 3.54485e-06, No Iterations 2
smoothSolver:  Solving for Uy, Initial residual = 0.00948079, Final residual = 3.61233e-06, No Iterations 2
smoothSolver:  Solving for Uz, Initial residual = 0.00755678, Final residual = 2.67118e-06, No Iterations 2
GAMG:  Solving for p, Initial residual = 0.0630135, Final residual = 0.00339958, No Iterations 1
GAMG:  Solving for p, Initial residual = 0.0159914, Final residual = 0.00131229, No Iterations 1
GAMG:  Solving for p, Initial residual = 0.00615808, Final residual = 0.000200668, No Iterations 2
GAMG:  Solving for p, Initial residual = 0.00339389, Final residual = 0.00026861, No Iterations 1
GAMG:  Solving for p, Initial residual = 0.00167214, Final residual = 6.39905e-05, No Iterations 2
time step continuity errors : sum local = 0.00286589, global = 0.000275273, cumulative = -0.378149
ExecutionTime = 8.33 s  ClockTime = 8 s

Time = 80

smoothSolver:  Solving for Ux, Initial residual = 0.00923811, Final residual = 3.50462e-06, No Iterations 2
smoothSolver:  Solving for Uy, Initial residual = 0.00938758, Final residual = 3.58017e-06, No Iterations 2
smoothSolver:  Solving for Uz, Initial residual = 0.0074748, Final residual = 2.63771e-06, No Iterations 2
GAMG:  Solving for p, Initial residual = 0.0621033, Final residual = 0.00333325, No Iterations 1
GAMG:  Solving for p, Initial residual = 0.0157359, Final residual = 0.00128001, No Iterations 1
GAMG:  Solving for p, Initial residual = 0.00602249, Final residual = 0.000192879, No Iterations 2
GAMG:  Solving for p, Initial residual = 0.00324711, Final residual = 0.000255536, No Iterations 1
GAMG:  Solving for p, Initial residual = 0.0015969, Final residual = 5.84682e-05, No Iterations 2
time step continuity errors : sum local = 0.00261003, global = -0.000159857, cumulative = -0.378309
ExecutionTime = 8.43 s  ClockTime = 9 s

Time = 81

smoothSolver:  Solving for Ux, Initial residual = 0.00914893, Final residual = 3.4666e-06, No Iterations 2
smoothSolver:  Solving for Uy, Initial residual = 0.00929249, Final residual = 3.54444e-06, No Iterations 2
smoothSolver:  Solving for Uz, Initial residual = 0.00739039, Final residual = 2.60531e-06, No Iterations 2
GAMG:  Solving for p, Initial residual = 0.0610826, Final residual = 0.00328266, No Iterations 1
GAMG:  Solving for p, Initial residual = 0.0154921, Final residual = 0.00125256, No Iterations 1
GAMG:  Solving for p, Initial residual = 0.00590865, Final residual = 0.000588862, No Iterations 1
GAMG:  Solving for p, Initial residual = 0.0029142, Final residual = 0.000114853, No Iterations 2
GAMG:  Solving for p, Initial residual = 0.00195295, Final residual = 0.000154563, No Iterations 1
time step continuity errors : sum local = 0.0068782, global = -0.00101703, cumulative = -0.379326
ExecutionTime = 8.53 s  ClockTime = 9 s

Time = 82

smoothSolver:  Solving for Ux, Initial residual = 0.00905559, Final residual = 3.42485e-06, No Iterations 2
smoothSolver:  Solving for Uy, Initial residual = 0.00919993, Final residual = 3.50997e-06, No Iterations 2
smoothSolver:  Solving for Uz, Initial residual = 0.00730385, Final residual = 2.57425e-06, No Iterations 2
GAMG:  Solving for p, Initial residual = 0.0601453, Final residual = 0.00322542, No Iterations 1
GAMG:  Solving for p, Initial residual = 0.0152566, Final residual = 0.00122778, No Iterations 1
GAMG:  Solving for p, Initial residual = 0.00583708, Final residual = 0.000573238, No Iterations 1
GAMG:  Solving for p, Initial residual = 0.00290852, Final residual = 0.000125289, No Iterations 2
GAMG:  Solving for p, Initial residual = 0.00208203, Final residual = 0.000158827, No Iterations 1
time step continuity errors : sum local = 0.00704641, global = -0.00158147, cumulative = -0.380908
ExecutionTime = 8.62 s  ClockTime = 9 s

Time = 83

smoothSolver:  Solving for Ux, Initial residual = 0.00896197, Final residual = 3.37559e-06, No Iterations 2
[...]
GAMG:  Solving for p, Initial residual = 0.000116584, Final residual = 5.5805e-06, No Iterations 2
GAMG:  Solving for p, Initial residual = 7.93741e-05, Final residual = 6.97169e-06, No Iterations 1
time step continuity errors : sum local = 0.0002864, global = 4.17497e-05, cumulative = -0.358799
ExecutionTime = 201.02 s  ClockTime = 201 s

Time = 1981

smoothSolver:  Solving for Ux, Initial residual = 7.81261e-05, Final residual = 5.42288e-08, No Iterations 2
smoothSolver:  Solving for Uy, Initial residual = 7.95301e-05, Final residual = 5.13142e-08, No Iterations 2
smoothSolver:  Solving for Uz, Initial residual = 2.86332e-05, Final residual = 1.66362e-08, No Iterations 2
GAMG:  Solving for p, Initial residual = 0.00113138, Final residual = 0.000110734, No Iterations 1
GAMG:  Solving for p, Initial residual = 0.000463668, Final residual = 1.86791e-05, No Iterations 2
GAMG:  Solving for p, Initial residual = 0.000239452, Final residual = 2.11088e-05, No Iterations 1
GAMG:  Solving for p, Initial residual = 0.000115199, Final residual = 5.36368e-06, No Iterations 2
GAMG:  Solving for p, Initial residual = 7.81336e-05, Final residual = 6.87373e-06, No Iterations 1
time step continuity errors : sum local = 0.000282373, global = 3.80189e-05, cumulative = -0.358761
ExecutionTime = 201.12 s  ClockTime = 201 s

Time = 1982

smoothSolver:  Solving for Ux, Initial residual = 7.85456e-05, Final residual = 5.51024e-08, No Iterations 2
smoothSolver:  Solving for Uy, Initial residual = 8.07952e-05, Final residual = 5.47626e-08, No Iterations 2
smoothSolver:  Solving for Uz, Initial residual = 2.89672e-05, Final residual = 1.73344e-08, No Iterations 2
GAMG:  Solving for p, Initial residual = 0.00109982, Final residual = 0.00010418, No Iterations 1
GAMG:  Solving for p, Initial residual = 0.000452393, Final residual = 1.72403e-05, No Iterations 2
GAMG:  Solving for p, Initial residual = 0.000231046, Final residual = 2.0087e-05, No Iterations 1
GAMG:  Solving for p, Initial residual = 0.000111006, Final residual = 5.0052e-06, No Iterations 2
GAMG:  Solving for p, Initial residual = 7.44395e-05, Final residual = 6.57802e-06, No Iterations 1
time step continuity errors : sum local = 0.000270222, global = 3.60741e-05, cumulative = -0.358725
ExecutionTime = 201.22 s  ClockTime = 201 s

Time = 1983

smoothSolver:  Solving for Ux, Initial residual = 7.91864e-05, Final residual = 5.40489e-08, No Iterations 2
smoothSolver:  Solving for Uy, Initial residual = 8.10242e-05, Final residual = 5.93362e-08, No Iterations 2
smoothSolver:  Solving for Uz, Initial residual = 2.86224e-05, Final residual = 1.77234e-08, No Iterations 2
GAMG:  Solving for p, Initial residual = 0.00112684, Final residual = 0.000103832, No Iterations 1
GAMG:  Solving for p, Initial residual = 0.000470074, Final residual = 1.68786e-05, No Iterations 2
GAMG:  Solving for p, Initial residual = 0.000232045, Final residual = 1.9387e-05, No Iterations 1
GAMG:  Solving for p, Initial residual = 0.00010971, Final residual = 4.55954e-06, No Iterations 2
GAMG:  Solving for p, Initial residual = 7.11658e-05, Final residual = 6.17273e-06, No Iterations 1
time step continuity errors : sum local = 0.00025356, global = 3.01213e-05, cumulative = -0.358695
ExecutionTime = 201.32 s  ClockTime = 202 s

Time = 1984

smoothSolver:  Solving for Ux, Initial residual = 8.18577e-05, Final residual = 5.60161e-08, No Iterations 2
smoothSolver:  Solving for Uy, Initial residual = 8.18893e-05, Final residual = 6.46997e-08, No Iterations 2
smoothSolver:  Solving for Uz, Initial residual = 2.80201e-05, Final residual = 1.82984e-08, No Iterations 2
GAMG:  Solving for p, Initial residual = 0.00113601, Final residual = 0.0001052, No Iterations 1
GAMG:  Solving for p, Initial residual = 0.000475288, Final residual = 1.79275e-05, No Iterations 2
GAMG:  Solving for p, Initial residual = 0.000239612, Final residual = 1.97262e-05, No Iterations 1
GAMG:  Solving for p, Initial residual = 0.000111738, Final residual = 4.57535e-06, No Iterations 2
GAMG:  Solving for p, Initial residual = 7.12701e-05, Final residual = 6.06199e-06, No Iterations 1
time step continuity errors : sum local = 0.000248994, global = 1.88785e-05, cumulative = -0.358676
ExecutionTime = 201.42 s  ClockTime = 202 s

Time = 1985

smoothSolver:  Solving for Ux, Initial residual = 8.1226e-05, Final residual = 5.5628e-08, No Iterations 2
smoothSolver:  Solving for Uy, Initial residual = 8.10436e-05, Final residual = 6.77771e-08, No Iterations 2
smoothSolver:  Solving for Uz, Initial residual = 2.77379e-05, Final residual = 1.81552e-08, No Iterations 2
GAMG:  Solving for p, Initial residual = 0.00115286, Final residual = 0.000111865, No Iterations 1
GAMG:  Solving for p, Initial residual = 0.000479251, Final residual = 1.94327e-05, No Iterations 2
GAMG:  Solving for p, Initial residual = 0.000254493, Final residual = 2.1401e-05, No Iterations 1
GAMG:  Solving for p, Initial residual = 0.000119645, Final residual = 4.92873e-06, No Iterations 2
GAMG:  Solving for p, Initial residual = 7.82675e-05, Final residual = 6.56684e-06, No Iterations 1
time step continuity errors : sum local = 0.000269715, global = -2.40836e-06, cumulative = -0.358679
ExecutionTime = 201.52 s  ClockTime = 202 s

Time = 1986

smoothSolver:  Solving for Ux, Initial residual = 7.92264e-05, Final residual = 5.624e-08, No Iterations 2
smoothSolver:  Solving for Uy, Initial residual = 7.95406e-05, Final residual = 7.00329e-08, No Iterations 2
smoothSolver:  Solving for Uz, Initial residual = 2.72767e-05, Final residual = 1.66536e-08, No Iterations 2
GAMG:  Solving for p, Initial residual = 0.00115858, Final residual = 0.000114542, No Iterations 1
GAMG:  Solving for p, Initial residual = 0.000473588, Final residual = 2.0126e-05, No Iterations 2
GAMG:  Solving for p, Initial residual = 0.00025901, Final residual = 2.20627e-05, No Iterations 1
GAMG:  Solving for p, Initial residual = 0.000121527, Final residual = 5.13947e-06, No Iterations 2
GAMG:  Solving for p, Initial residual = 8.07613e-05, Final residual = 6.76909e-06, No Iterations 1
time step continuity errors : sum local = 0.000278001, global = -2.24708e-05, cumulative = -0.358701
ExecutionTime = 201.61 s  ClockTime = 202 s

Time = 1987

smoothSolver:  Solving for Ux, Initial residual = 7.82646e-05, Final residual = 5.6437e-08, No Iterations 2
smoothSolver:  Solving for Uy, Initial residual = 8.09143e-05, Final residual = 7.03821e-08, No Iterations 2
smoothSolver:  Solving for Uz, Initial residual = 2.66386e-05, Final residual = 1.61753e-08, No Iterations 2
GAMG:  Solving for p, Initial residual = 0.00117188, Final residual = 0.000113489, No Iterations 1
GAMG:  Solving for p, Initial residual = 0.000467438, Final residual = 1.94252e-05, No Iterations 2
GAMG:  Solving for p, Initial residual = 0.000251177, Final residual = 2.15185e-05, No Iterations 1
GAMG:  Solving for p, Initial residual = 0.000118042, Final residual = 5.20777e-06, No Iterations 2
GAMG:  Solving for p, Initial residual = 7.97246e-05, Final residual = 6.79714e-06, No Iterations 1
time step continuity errors : sum local = 0.000279132, global = -4.09631e-05, cumulative = -0.358742
ExecutionTime = 201.72 s  ClockTime = 202 s

Time = 1988

smoothSolver:  Solving for Ux, Initial residual = 7.72454e-05, Final residual = 5.57211e-08, No Iterations 2
smoothSolver:  Solving for Uy, Initial residual = 8.07504e-05, Final residual = 6.53935e-08, No Iterations 2
smoothSolver:  Solving for Uz, Initial residual = 2.73109e-05, Final residual = 1.72406e-08, No Iterations 2
GAMG:  Solving for p, Initial residual = 0.00114088, Final residual = 0.000107314, No Iterations 1
GAMG:  Solving for p, Initial residual = 0.00046131, Final residual = 1.71954e-05, No Iterations 2
GAMG:  Solving for p, Initial residual = 0.000235903, Final residual = 1.97325e-05, No Iterations 1
GAMG:  Solving for p, Initial residual = 0.000110685, Final residual = 4.79244e-06, No Iterations 2
GAMG:  Solving for p, Initial residual = 7.45146e-05, Final residual = 6.33191e-06, No Iterations 1
time step continuity errors : sum local = 0.000260016, global = -4.6607e-05, cumulative = -0.358789
ExecutionTime = 201.82 s  ClockTime = 202 s

Time = 1989

smoothSolver:  Solving for Ux, Initial residual = 7.63401e-05, Final residual = 5.55589e-08, No Iterations 2
smoothSolver:  Solving for Uy, Initial residual = 8.10406e-05, Final residual = 6.15534e-08, No Iterations 2
smoothSolver:  Solving for Uz, Initial residual = 2.86314e-05, Final residual = 1.81264e-08, No Iterations 2
GAMG:  Solving for p, Initial residual = 0.00108289, Final residual = 9.92621e-05, No Iterations 1
GAMG:  Solving for p, Initial residual = 0.00044326, Final residual = 1.5868e-05, No Iterations 2
GAMG:  Solving for p, Initial residual = 0.000219512, Final residual = 1.83872e-05, No Iterations 1
GAMG:  Solving for p, Initial residual = 0.000102029, Final residual = 4.53899e-06, No Iterations 2
GAMG:  Solving for p, Initial residual = 6.88178e-05, Final residual = 5.92537e-06, No Iterations 1
time step continuity errors : sum local = 0.000243323, global = -4.79515e-05, cumulative = -0.358837
ExecutionTime = 201.91 s  ClockTime = 202 s

Time = 1990

smoothSolver:  Solving for Ux, Initial residual = 7.78828e-05, Final residual = 5.44752e-08, No Iterations 2
smoothSolver:  Solving for Uy, Initial residual = 8.12625e-05, Final residual = 5.77922e-08, No Iterations 2
smoothSolver:  Solving for Uz, Initial residual = 2.85531e-05, Final residual = 1.76711e-08, No Iterations 2
GAMG:  Solving for p, Initial residual = 0.00104371, Final residual = 9.65707e-05, No Iterations 1
GAMG:  Solving for p, Initial residual = 0.00042673, Final residual = 1.60117e-05, No Iterations 2
GAMG:  Solving for p, Initial residual = 0.000213768, Final residual = 1.77614e-05, No Iterations 1
GAMG:  Solving for p, Initial residual = 9.92337e-05, Final residual = 4.33173e-06, No Iterations 2
GAMG:  Solving for p, Initial residual = 6.55589e-05, Final residual = 5.68431e-06, No Iterations 1
time step continuity errors : sum local = 0.000233423, global = -4.36454e-05, cumulative = -0.35888
ExecutionTime = 202.02 s  ClockTime = 202 s

Time = 1991

smoothSolver:  Solving for Ux, Initial residual = 7.83271e-05, Final residual = 5.33561e-08, No Iterations 2
smoothSolver:  Solving for Uy, Initial residual = 8.14395e-05, Final residual = 5.38029e-08, No Iterations 2
smoothSolver:  Solving for Uz, Initial residual = 2.7984e-05, Final residual = 1.69122e-08, No Iterations 2
GAMG:  Solving for p, Initial residual = 0.00106272, Final residual = 0.000101371, No Iterations 1
GAMG:  Solving for p, Initial residual = 0.000435139, Final residual = 1.7664e-05, No Iterations 2
GAMG:  Solving for p, Initial residual = 0.000226019, Final residual = 1.89538e-05, No Iterations 1
GAMG:  Solving for p, Initial residual = 0.000105216, Final residual = 4.55976e-06, No Iterations 2
GAMG:  Solving for p, Initial residual = 6.85403e-05, Final residual = 5.94314e-06, No Iterations 1
time step continuity errors : sum local = 0.000244057, global = -3.7035e-05, cumulative = -0.358917
ExecutionTime = 202.11 s  ClockTime = 202 s

Time = 1992

smoothSolver:  Solving for Ux, Initial residual = 7.73098e-05, Final residual = 5.39946e-08, No Iterations 2
smoothSolver:  Solving for Uy, Initial residual = 7.98691e-05, Final residual = 5.56925e-08, No Iterations 2
smoothSolver:  Solving for Uz, Initial residual = 2.73012e-05, Final residual = 1.6397e-08, No Iterations 2
GAMG:  Solving for p, Initial residual = 0.00113232, Final residual = 0.000109564, No Iterations 1
GAMG:  Solving for p, Initial residual = 0.000456035, Final residual = 1.91248e-05, No Iterations 2
GAMG:  Solving for p, Initial residual = 0.000240801, Final residual = 2.0347e-05, No Iterations 1
GAMG:  Solving for p, Initial residual = 0.000112059, Final residual = 4.73372e-06, No Iterations 2
GAMG:  Solving for p, Initial residual = 7.29634e-05, Final residual = 6.19298e-06, No Iterations 1
time step continuity errors : sum local = 0.000254326, global = -2.19153e-05, cumulative = -0.358939
ExecutionTime = 202.21 s  ClockTime = 202 s

Time = 1993

smoothSolver:  Solving for Ux, Initial residual = 7.91291e-05, Final residual = 5.44069e-08, No Iterations 2
smoothSolver:  Solving for Uy, Initial residual = 8.03189e-05, Final residual = 5.90363e-08, No Iterations 2
smoothSolver:  Solving for Uz, Initial residual = 2.71542e-05, Final residual = 1.61971e-08, No Iterations 2
GAMG:  Solving for p, Initial residual = 0.00115172, Final residual = 0.000111695, No Iterations 1
GAMG:  Solving for p, Initial residual = 0.000458639, Final residual = 1.94857e-05, No Iterations 2
GAMG:  Solving for p, Initial residual = 0.000244811, Final residual = 2.0798e-05, No Iterations 1
GAMG:  Solving for p, Initial residual = 0.000115211, Final residual = 4.95816e-06, No Iterations 2
GAMG:  Solving for p, Initial residual = 7.67891e-05, Final residual = 6.45273e-06, No Iterations 1
time step continuity errors : sum local = 0.000265015, global = -7.95298e-06, cumulative = -0.358947
ExecutionTime = 202.31 s  ClockTime = 203 s

Time = 1994

smoothSolver:  Solving for Ux, Initial residual = 7.97326e-05, Final residual = 5.60954e-08, No Iterations 2
smoothSolver:  Solving for Uy, Initial residual = 8.22083e-05, Final residual = 5.97134e-08, No Iterations 2
smoothSolver:  Solving for Uz, Initial residual = 2.72192e-05, Final residual = 1.68407e-08, No Iterations 2
GAMG:  Solving for p, Initial residual = 0.00111386, Final residual = 0.000107284, No Iterations 1
GAMG:  Solving for p, Initial residual = 0.000449309, Final residual = 1.83644e-05, No Iterations 2
GAMG:  Solving for p, Initial residual = 0.000240298, Final residual = 2.06202e-05, No Iterations 1
GAMG:  Solving for p, Initial residual = 0.00011453, Final residual = 4.96543e-06, No Iterations 2
GAMG:  Solving for p, Initial residual = 7.73363e-05, Final residual = 6.49485e-06, No Iterations 1
time step continuity errors : sum local = 0.000266769, global = 8.0262e-06, cumulative = -0.358939
ExecutionTime = 202.41 s  ClockTime = 203 s

Time = 1995

smoothSolver:  Solving for Ux, Initial residual = 7.98876e-05, Final residual = 5.67124e-08, No Iterations 2
smoothSolver:  Solving for Uy, Initial residual = 8.31205e-05, Final residual = 5.82615e-08, No Iterations 2
smoothSolver:  Solving for Uz, Initial residual = 2.76211e-05, Final residual = 1.82482e-08, No Iterations 2
GAMG:  Solving for p, Initial residual = 0.00111963, Final residual = 0.000107955, No Iterations 1
GAMG:  Solving for p, Initial residual = 0.000464703, Final residual = 1.75929e-05, No Iterations 2
GAMG:  Solving for p, Initial residual = 0.000241165, Final residual = 2.00048e-05, No Iterations 1
GAMG:  Solving for p, Initial residual = 0.00011376, Final residual = 4.68635e-06, No Iterations 2
GAMG:  Solving for p, Initial residual = 7.41856e-05, Final residual = 6.24134e-06, No Iterations 1
time step continuity errors : sum local = 0.000256366, global = 1.9594e-05, cumulative = -0.35892
ExecutionTime = 202.51 s  ClockTime = 203 s

Time = 1996

smoothSolver:  Solving for Ux, Initial residual = 8.05512e-05, Final residual = 5.58025e-08, No Iterations 2
smoothSolver:  Solving for Uy, Initial residual = 8.3015e-05, Final residual = 5.62031e-08, No Iterations 2
smoothSolver:  Solving for Uz, Initial residual = 2.80665e-05, Final residual = 1.84505e-08, No Iterations 2
GAMG:  Solving for p, Initial residual = 0.00111758, Final residual = 0.000107301, No Iterations 1
GAMG:  Solving for p, Initial residual = 0.000478445, Final residual = 1.72571e-05, No Iterations 2
GAMG:  Solving for p, Initial residual = 0.000242338, Final residual = 1.96568e-05, No Iterations 1
GAMG:  Solving for p, Initial residual = 0.000113464, Final residual = 4.53606e-06, No Iterations 2
GAMG:  Solving for p, Initial residual = 7.26584e-05, Final residual = 6.05645e-06, No Iterations 1
time step continuity errors : sum local = 0.00024878, global = 3.35626e-05, cumulative = -0.358886
ExecutionTime = 202.6 s  ClockTime = 203 s

Time = 1997

smoothSolver:  Solving for Ux, Initial residual = 8.13381e-05, Final residual = 5.46371e-08, No Iterations 2
smoothSolver:  Solving for Uy, Initial residual = 8.23915e-05, Final residual = 5.67716e-08, No Iterations 2
smoothSolver:  Solving for Uz, Initial residual = 2.83817e-05, Final residual = 1.77533e-08, No Iterations 2
GAMG:  Solving for p, Initial residual = 0.00113812, Final residual = 0.000109854, No Iterations 1
GAMG:  Solving for p, Initial residual = 0.00048772, Final residual = 1.80555e-05, No Iterations 2
GAMG:  Solving for p, Initial residual = 0.000243597, Final residual = 2.04933e-05, No Iterations 1
GAMG:  Solving for p, Initial residual = 0.000114447, Final residual = 4.85205e-06, No Iterations 2
GAMG:  Solving for p, Initial residual = 7.44995e-05, Final residual = 6.36486e-06, No Iterations 1
time step continuity errors : sum local = 0.000261447, global = 4.17011e-05, cumulative = -0.358844
ExecutionTime = 202.71 s  ClockTime = 203 s

Time = 1998

smoothSolver:  Solving for Ux, Initial residual = 8.0876e-05, Final residual = 5.39098e-08, No Iterations 2
smoothSolver:  Solving for Uy, Initial residual = 8.19103e-05, Final residual = 5.75075e-08, No Iterations 2
smoothSolver:  Solving for Uz, Initial residual = 2.86508e-05, Final residual = 1.79023e-08, No Iterations 2
GAMG:  Solving for p, Initial residual = 0.00114643, Final residual = 0.000110895, No Iterations 1
GAMG:  Solving for p, Initial residual = 0.000478948, Final residual = 1.87773e-05, No Iterations 2
GAMG:  Solving for p, Initial residual = 0.000242408, Final residual = 2.09248e-05, No Iterations 1
GAMG:  Solving for p, Initial residual = 0.000114207, Final residual = 5.02312e-06, No Iterations 2
GAMG:  Solving for p, Initial residual = 7.63224e-05, Final residual = 6.50656e-06, No Iterations 1
time step continuity errors : sum local = 0.000267273, global = 4.48167e-05, cumulative = -0.3588
ExecutionTime = 202.8 s  ClockTime = 203 s

Time = 1999

smoothSolver:  Solving for Ux, Initial residual = 7.99178e-05, Final residual = 5.455e-08, No Iterations 2
smoothSolver:  Solving for Uy, Initial residual = 8.08199e-05, Final residual = 6.03871e-08, No Iterations 2
smoothSolver:  Solving for Uz, Initial residual = 2.87347e-05, Final residual = 1.84376e-08, No Iterations 2
GAMG:  Solving for p, Initial residual = 0.00117129, Final residual = 0.000113242, No Iterations 1
GAMG:  Solving for p, Initial residual = 0.000472844, Final residual = 1.90614e-05, No Iterations 2
GAMG:  Solving for p, Initial residual = 0.000240973, Final residual = 2.09936e-05, No Iterations 1
GAMG:  Solving for p, Initial residual = 0.000113385, Final residual = 5.06061e-06, No Iterations 2
GAMG:  Solving for p, Initial residual = 7.64702e-05, Final residual = 6.50493e-06, No Iterations 1
time step continuity errors : sum local = 0.000267219, global = 3.85493e-05, cumulative = -0.358761
ExecutionTime = 202.9 s  ClockTime = 203 s

Time = 2000

smoothSolver:  Solving for Ux, Initial residual = 7.80392e-05, Final residual = 5.46056e-08, No Iterations 2
smoothSolver:  Solving for Uy, Initial residual = 8.18183e-05, Final residual = 6.04015e-08, No Iterations 2
smoothSolver:  Solving for Uz, Initial residual = 2.81441e-05, Final residual = 1.80904e-08, No Iterations 2
GAMG:  Solving for p, Initial residual = 0.00115123, Final residual = 0.000107871, No Iterations 1
GAMG:  Solving for p, Initial residual = 0.00046379, Final residual = 1.83673e-05, No Iterations 2
GAMG:  Solving for p, Initial residual = 0.000245348, Final residual = 2.06488e-05, No Iterations 1
GAMG:  Solving for p, Initial residual = 0.000116416, Final residual = 4.96556e-06, No Iterations 2
GAMG:  Solving for p, Initial residual = 7.77256e-05, Final residual = 6.39543e-06, No Iterations 1
time step continuity errors : sum local = 0.000262723, global = 3.51329e-05, cumulative = -0.358726
ExecutionTime = 203.16 s  ClockTime = 203 s

End

