/*---------------------------------------------------------------------------*\
| =========                 |                                                 |
| \\      /  F ield         | OpenFOAM: The Open Source CFD Toolbox           |
|  \\    /   O peration     | Version:  2506                                  |
|   \\  /    A nd           | Website:  www.openfoam.com                      |
|    \\/     M anipulation  |                                                 |
\*---------------------------------------------------------------------------*/
Build  : _615aae61-20250627 OPENFOAM=2506 version=2506
Arch   : "LSB;label=32;scalar=64"
Exec   : simpleFoam -noFunctionObjects -case /home/ubuntu/fan_CFD_dataset/cases/fan_6
Date   : Nov 07 2025
Time   : 15:20:59
Host   : ip-172-31-37-87
PID    : 180316
I/O    : uncollated
Case   : /home/ubuntu/fan_CFD_dataset/cases/fan_6
nProcs : 1
trapFpe: Floating point exception trapping enabled (FOAM_SIGFPE).
fileModificationChecking : Monitoring run-time modified files using timeStampMaster (fileModificationSkew 5, maxFileModificationPolls 20)
allowSystemOperations : Allowing user-supplied system call operations

// * * * * * * * * * * * * * * * * * * * * * * * * * * * * * * * * * * * * * //
Create time

Create mesh for time = 0


SIMPLE: convergence criteria
    field U	 tolerance 1e-05
    field p	 tolerance 0.0001

Reading field p

Reading field U

Reading/calculating face flux field phi

Selecting incompressible transport model Newtonian
Selecting turbulence model type laminar
Selecting laminar stress model Stokes
No MRF models present

No finite volume options present

Starting time loop

Time = 1

smoothSolver:  Solving for Ux, Initial residual = 1, Final residual = 0.0002874, No Iterations 2
smoothSolver:  Solving for Uy, Initial residual = 1, Final residual = 0.000293677, No Iterations 2
smoothSolver:  Solving for Uz, Initial residual = 1, Final residual = 0.000601626, No Iterations 2
GAMG:  Solving for p, Initial residual = 1, Final residual = 0.0836043, No Iterations 3
GAMG:  Solving for p, Initial residual = 0.129556, Final residual = 0.00879068, No Iterations 1
GAMG:  Solving for p, Initial residual = 0.0332029, Final residual = 0.00143057, No Iterations 2
GAMG:  Solving for p, Initial residual = 0.0221291, Final residual = 0.00161444, No Iterations 1
GAMG:  Solving for p, Initial residual = 0.00891403, Final residual = 0.000463958, No Iterations 2
time step continuity errors : sum local = 4.47904, global = -0.691532, cumulative = -0.691532
ExecutionTime = 0.21 s  ClockTime = 0 s

Time = 2

smoothSolver:  Solving for Ux, Initial residual = 0.0586503, Final residual = 2.36616e-05, No Iterations 2
smoothSolver:  Solving for Uy, Initial residual = 0.0587494, Final residual = 2.43635e-05, No Iterations 2
smoothSolver:  Solving for Uz, Initial residual = 0.16766, Final residual = 5.04668e-05, No Iterations 2
GAMG:  Solving for p, Initial residual = 0.531774, Final residual = 0.0232813, No Iterations 4
GAMG:  Solving for p, Initial residual = 0.0473808, Final residual = 0.00327553, No Iterations 1
GAMG:  Solving for p, Initial residual = 0.0150942, Final residual = 0.000651381, No Iterations 2
GAMG:  Solving for p, Initial residual = 0.0103656, Final residual = 0.000756897, No Iterations 1
GAMG:  Solving for p, Initial residual = 0.00483809, Final residual = 0.00025541, No Iterations 2
time step continuity errors : sum local = 5.60938, global = -0.583191, cumulative = -1.27472
ExecutionTime = 0.29 s  ClockTime = 0 s

Time = 3

smoothSolver:  Solving for Ux, Initial residual = 0.193184, Final residual = 8.91941e-05, No Iterations 2
smoothSolver:  Solving for Uy, Initial residual = 0.197779, Final residual = 9.23705e-05, No Iterations 2
smoothSolver:  Solving for Uz, Initial residual = 0.451295, Final residual = 0.000174506, No Iterations 2
GAMG:  Solving for p, Initial residual = 0.0727659, Final residual = 0.00406347, No Iterations 3
GAMG:  Solving for p, Initial residual = 0.0501642, Final residual = 0.00345203, No Iterations 1
GAMG:  Solving for p, Initial residual = 0.0151971, Final residual = 0.000676772, No Iterations 2
GAMG:  Solving for p, Initial residual = 0.0108061, Final residual = 0.000806505, No Iterations 1
GAMG:  Solving for p, Initial residual = 0.00474314, Final residual = 0.000251526, No Iterations 2
time step continuity errors : sum local = 2.73526, global = -0.310051, cumulative = -1.58477
ExecutionTime = 0.36 s  ClockTime = 0 s

Time = 4

smoothSolver:  Solving for Ux, Initial residual = 0.178045, Final residual = 7.84298e-05, No Iterations 2
smoothSolver:  Solving for Uy, Initial residual = 0.178303, Final residual = 8.07525e-05, No Iterations 2
smoothSolver:  Solving for Uz, Initial residual = 0.487308, Final residual = 0.000196512, No Iterations 2
GAMG:  Solving for p, Initial residual = 0.0328867, Final residual = 0.0024991, No Iterations 1
GAMG:  Solving for p, Initial residual = 0.0114898, Final residual = 0.000600104, No Iterations 2
GAMG:  Solving for p, Initial residual = 0.00984611, Final residual = 0.000685063, No Iterations 1
GAMG:  Solving for p, Initial residual = 0.00408762, Final residual = 0.000213936, No Iterations 2
GAMG:  Solving for p, Initial residual = 0.00371533, Final residual = 0.000277286, No Iterations 1
time step continuity errors : sum local = 2.0217, global = -0.652288, cumulative = -2.23706
ExecutionTime = 0.43 s  ClockTime = 0 s

Time = 5

smoothSolver:  Solving for Ux, Initial residual = 0.13397, Final residual = 5.69676e-05, No Iterations 2
smoothSolver:  Solving for Uy, Initial residual = 0.133712, Final residual = 5.75602e-05, No Iterations 2
smoothSolver:  Solving for Uz, Initial residual = 0.424128, Final residual = 0.000169518, No Iterations 2
GAMG:  Solving for p, Initial residual = 0.0343352, Final residual = 0.00232155, No Iterations 2
GAMG:  Solving for p, Initial residual = 0.0683979, Final residual = 0.00465438, No Iterations 1
GAMG:  Solving for p, Initial residual = 0.0286125, Final residual = 0.00154181, No Iterations 2
GAMG:  Solving for p, Initial residual = 0.0403329, Final residual = 0.00281075, No Iterations 1
GAMG:  Solving for p, Initial residual = 0.0171594, Final residual = 0.000896956, No Iterations 2
time step continuity errors : sum local = 1.39584, global = 0.177967, cumulative = -2.0591
ExecutionTime = 0.5 s  ClockTime = 0 s

Time = 6

smoothSolver:  Solving for Ux, Initial residual = 0.0918289, Final residual = 3.93146e-05, No Iterations 2
smoothSolver:  Solving for Uy, Initial residual = 0.0906908, Final residual = 3.8731e-05, No Iterations 2
smoothSolver:  Solving for Uz, Initial residual = 0.313675, Final residual = 0.000123255, No Iterations 2
GAMG:  Solving for p, Initial residual = 0.0463162, Final residual = 0.00289166, No Iterations 3
GAMG:  Solving for p, Initial residual = 0.141743, Final residual = 0.00976156, No Iterations 1
GAMG:  Solving for p, Initial residual = 0.0463233, Final residual = 0.00217249, No Iterations 2
GAMG:  Solving for p, Initial residual = 0.0296556, Final residual = 0.00216242, No Iterations 1
GAMG:  Solving for p, Initial residual = 0.0125718, Final residual = 0.000669621, No Iterations 2
time step continuity errors : sum local = 2.51983, global = 0.294629, cumulative = -1.76447
ExecutionTime = 0.57 s  ClockTime = 0 s

Time = 7

smoothSolver:  Solving for Ux, Initial residual = 0.0565238, Final residual = 2.63069e-05, No Iterations 2
smoothSolver:  Solving for Uy, Initial residual = 0.0553241, Final residual = 2.60407e-05, No Iterations 2
smoothSolver:  Solving for Uz, Initial residual = 0.184786, Final residual = 7.85394e-05, No Iterations 2
GAMG:  Solving for p, Initial residual = 0.0712168, Final residual = 0.00484115, No Iterations 3
GAMG:  Solving for p, Initial residual = 0.0959741, Final residual = 0.00659798, No Iterations 1
GAMG:  Solving for p, Initial residual = 0.0301932, Final residual = 0.00141066, No Iterations 2
GAMG:  Solving for p, Initial residual = 0.0207428, Final residual = 0.00151992, No Iterations 1
GAMG:  Solving for p, Initial residual = 0.00894259, Final residual = 0.000479659, No Iterations 2
time step continuity errors : sum local = 3.03819, global = 0.348884, cumulative = -1.41558
ExecutionTime = 0.65 s  ClockTime = 0 s

Time = 8

smoothSolver:  Solving for Ux, Initial residual = 0.0357803, Final residual = 1.92474e-05, No Iterations 2
smoothSolver:  Solving for Uy, Initial residual = 0.0357625, Final residual = 1.95093e-05, No Iterations 2
smoothSolver:  Solving for Uz, Initial residual = 0.0796383, Final residual = 4.21625e-05, No Iterations 2
GAMG:  Solving for p, Initial residual = 0.171722, Final residual = 0.0102834, No Iterations 3
GAMG:  Solving for p, Initial residual = 0.0752127, Final residual = 0.00515024, No Iterations 1
GAMG:  Solving for p, Initial residual = 0.0235181, Final residual = 0.00109936, No Iterations 2
GAMG:  Solving for p, Initial residual = 0.0167767, Final residual = 0.00123405, No Iterations 1
GAMG:  Solving for p, Initial residual = 0.00739081, Final residual = 0.000403801, No Iterations 2
time step continuity errors : sum local = 2.86736, global = 0.318541, cumulative = -1.09704
ExecutionTime = 0.71 s  ClockTime = 0 s

Time = 9

smoothSolver:  Solving for Ux, Initial residual = 0.0376498, Final residual = 2.13708e-05, No Iterations 2
smoothSolver:  Solving for Uy, Initial residual = 0.0393949, Final residual = 2.27229e-05, No Iterations 2
smoothSolver:  Solving for Uz, Initial residual = 0.0802135, Final residual = 4.15647e-05, No Iterations 2
GAMG:  Solving for p, Initial residual = 0.165428, Final residual = 0.0117535, No Iterations 2
GAMG:  Solving for p, Initial residual = 0.0562631, Final residual = 0.00382896, No Iterations 1
GAMG:  Solving for p, Initial residual = 0.0191712, Final residual = 0.00100957, No Iterations 2
GAMG:  Solving for p, Initial residual = 0.0155757, Final residual = 0.00112734, No Iterations 1
GAMG:  Solving for p, Initial residual = 0.00669839, Final residual = 0.000365129, No Iterations 2
time step continuity errors : sum local = 2.277, global = 0.252952, cumulative = -0.844089
ExecutionTime = 0.78 s  ClockTime = 0 s

Time = 10

smoothSolver:  Solving for Ux, Initial residual = 0.0506886, Final residual = 2.59584e-05, No Iterations 2
smoothSolver:  Solving for Uy, Initial residual = 0.0532744, Final residual = 2.75744e-05, No Iterations 2
smoothSolver:  Solving for Uz, Initial residual = 0.155043, Final residual = 6.6933e-05, No Iterations 2
GAMG:  Solving for p, Initial residual = 0.0942594, Final residual = 0.00811364, No Iterations 1
GAMG:  Solving for p, Initial residual = 0.032697, Final residual = 0.00167649, No Iterations 2
GAMG:  Solving for p, Initial residual = 0.0223025, Final residual = 0.00156238, No Iterations 1
GAMG:  Solving for p, Initial residual = 0.00914514, Final residual = 0.000481308, No Iterations 2
GAMG:  Solving for p, Initial residual = 0.00808374, Final residual = 0.000605406, No Iterations 1
time step continuity errors : sum local = 2.60744, global = 0.898127, cumulative = 0.0540375
ExecutionTime = 0.85 s  ClockTime = 0 s

Time = 11

smoothSolver:  Solving for Ux, Initial residual = 0.0590789, Final residual = 2.89788e-05, No Iterations 2
smoothSolver:  Solving for Uy, Initial residual = 0.0614461, Final residual = 3.09129e-05, No Iterations 2
smoothSolver:  Solving for Uz, Initial residual = 0.207971, Final residual = 8.49922e-05, No Iterations 2
GAMG:  Solving for p, Initial residual = 0.079194, Final residual = 0.00606691, No Iterations 1
GAMG:  Solving for p, Initial residual = 0.0286289, Final residual = 0.00272755, No Iterations 1
GAMG:  Solving for p, Initial residual = 0.0156671, Final residual = 0.000706915, No Iterations 2
GAMG:  Solving for p, Initial residual = 0.0137457, Final residual = 0.000910358, No Iterations 1
GAMG:  Solving for p, Initial residual = 0.00561906, Final residual = 0.000254766, No Iterations 2
time step continuity errors : sum local = 0.508113, global = -0.0449543, cumulative = 0.00908315
ExecutionTime = 0.92 s  ClockTime = 1 s

Time = 12

smoothSolver:  Solving for Ux, Initial residual = 0.0588188, Final residual = 2.8895e-05, No Iterations 2
smoothSolver:  Solving for Uy, Initial residual = 0.0604844, Final residual = 3.09721e-05, No Iterations 2
smoothSolver:  Solving for Uz, Initial residual = 0.216551, Final residual = 8.86499e-05, No Iterations 2
GAMG:  Solving for p, Initial residual = 0.0797023, Final residual = 0.00394732, No Iterations 2
GAMG:  Solving for p, Initial residual = 0.259929, Final residual = 0.0171067, No Iterations 1
GAMG:  Solving for p, Initial residual = 0.092502, Final residual = 0.00476795, No Iterations 2
GAMG:  Solving for p, Initial residual = 0.0476278, Final residual = 0.00324167, No Iterations 1
GAMG:  Solving for p, Initial residual = 0.0186101, Final residual = 0.000944, No Iterations 2
time step continuity errors : sum local = 0.969266, global = -0.130148, cumulative = -0.121065
ExecutionTime = 0.98 s  ClockTime = 1 s

Time = 13

smoothSolver:  Solving for Ux, Initial residual = 0.0497289, Final residual = 2.56195e-05, No Iterations 2
smoothSolver:  Solving for Uy, Initial residual = 0.0509704, Final residual = 2.74587e-05, No Iterations 2
smoothSolver:  Solving for Uz, Initial residual = 0.169785, Final residual = 7.2227e-05, No Iterations 2
GAMG:  Solving for p, Initial residual = 0.0953282, Final residual = 0.00643348, No Iterations 2
GAMG:  Solving for p, Initial residual = 0.120273, Final residual = 0.00809676, No Iterations 1
GAMG:  Solving for p, Initial residual = 0.0389459, Final residual = 0.00205478, No Iterations 2
GAMG:  Solving for p, Initial residual = 0.0276753, Final residual = 0.00193331, No Iterations 1
GAMG:  Solving for p, Initial residual = 0.0110918, Final residual = 0.000578446, No Iterations 2
time step continuity errors : sum local = 1.42389, global = -0.18114, cumulative = -0.302205
ExecutionTime = 1.05 s  ClockTime = 1 s

Time = 14

smoothSolver:  Solving for Ux, Initial residual = 0.0380838, Final residual = 2.10759e-05, No Iterations 2
smoothSolver:  Solving for Uy, Initial residual = 0.0396563, Final residual = 2.27137e-05, No Iterations 2
smoothSolver:  Solving for Uz, Initial residual = 0.0936832, Final residual = 4.54357e-05, No Iterations 2
GAMG:  Solving for p, Initial residual = 0.145876, Final residual = 0.0111498, No Iterations 2
GAMG:  Solving for p, Initial residual = 0.0862967, Final residual = 0.00587817, No Iterations 1
GAMG:  Solving for p, Initial residual = 0.0285957, Final residual = 0.0015285, No Iterations 2
GAMG:  Solving for p, Initial residual = 0.0219445, Final residual = 0.00155485, No Iterations 1
GAMG:  Solving for p, Initial residual = 0.00899172, Final residual = 0.000479496, No Iterations 2
time step continuity errors : sum local = 1.52928, global = -0.184416, cumulative = -0.486621
ExecutionTime = 1.12 s  ClockTime = 1 s

Time = 15

smoothSolver:  Solving for Ux, Initial residual = 0.0322508, Final residual = 1.86255e-05, No Iterations 2
smoothSolver:  Solving for Uy, Initial residual = 0.0345275, Final residual = 2.02225e-05, No Iterations 2
smoothSolver:  Solving for Uz, Initial residual = 0.0507965, Final residual = 2.94181e-05, No Iterations 2
GAMG:  Solving for p, Initial residual = 0.356421, Final residual = 0.0253882, No Iterations 2
GAMG:  Solving for p, Initial residual = 0.0665447, Final residual = 0.00460695, No Iterations 1
GAMG:  Solving for p, Initial residual = 0.0225109, Final residual = 0.00122017, No Iterations 2
GAMG:  Solving for p, Initial residual = 0.018211, Final residual = 0.0013195, No Iterations 1
GAMG:  Solving for p, Initial residual = 0.00769385, Final residual = 0.000418188, No Iterations 2
time step continuity errors : sum local = 1.31288, global = -0.15067, cumulative = -0.637291
ExecutionTime = 1.19 s  ClockTime = 1 s

Time = 16

smoothSolver:  Solving for Ux, Initial residual = 0.0324244, Final residual = 1.80627e-05, No Iterations 2
smoothSolver:  Solving for Uy, Initial residual = 0.0345557, Final residual = 1.91285e-05, No Iterations 2
smoothSolver:  Solving for Uz, Initial residual = 0.080128, Final residual = 3.59613e-05, No Iterations 2
GAMG:  Solving for p, Initial residual = 0.125159, Final residual = 0.00695346, No Iterations 2
GAMG:  Solving for p, Initial residual = 0.0481815, Final residual = 0.00347938, No Iterations 1
GAMG:  Solving for p, Initial residual = 0.0175467, Final residual = 0.000969411, No Iterations 2
GAMG:  Solving for p, Initial residual = 0.0149858, Final residual = 0.00111634, No Iterations 1
GAMG:  Solving for p, Initial residual = 0.00660461, Final residual = 0.000364109, No Iterations 2
time step continuity errors : sum local = 0.907546, global = -0.0933528, cumulative = -0.730644
ExecutionTime = 1.26 s  ClockTime = 1 s

Time = 17

smoothSolver:  Solving for Ux, Initial residual = 0.0325842, Final residual = 1.73607e-05, No Iterations 2
smoothSolver:  Solving for Uy, Initial residual = 0.0337847, Final residual = 1.81463e-05, No Iterations 2
smoothSolver:  Solving for Uz, Initial residual = 0.106382, Final residual = 4.26073e-05, No Iterations 2
GAMG:  Solving for p, Initial residual = 0.0854651, Final residual = 0.00242111, No Iterations 2
GAMG:  Solving for p, Initial residual = 0.0345384, Final residual = 0.00268385, No Iterations 1
GAMG:  Solving for p, Initial residual = 0.0140358, Final residual = 0.000714704, No Iterations 2
GAMG:  Solving for p, Initial residual = 0.0108625, Final residual = 0.000870867, No Iterations 1
GAMG:  Solving for p, Initial residual = 0.00534577, Final residual = 0.000301193, No Iterations 2
time step continuity errors : sum local = 0.45756, global = -0.0449457, cumulative = -0.77559
ExecutionTime = 1.33 s  ClockTime = 1 s

Time = 18

smoothSolver:  Solving for Ux, Initial residual = 0.0300903, Final residual = 1.60426e-05, No Iterations 2
smoothSolver:  Solving for Uy, Initial residual = 0.0304152, Final residual = 1.64794e-05, No Iterations 2
smoothSolver:  Solving for Uz, Initial residual = 0.106133, Final residual = 4.18257e-05, No Iterations 2
GAMG:  Solving for p, Initial residual = 0.0763821, Final residual = 0.00304202, No Iterations 2
GAMG:  Solving for p, Initial residual = 0.0728515, Final residual = 0.00483741, No Iterations 1
GAMG:  Solving for p, Initial residual = 0.0263704, Final residual = 0.00122583, No Iterations 2
GAMG:  Solving for p, Initial residual = 0.0275825, Final residual = 0.00182083, No Iterations 1
GAMG:  Solving for p, Initial residual = 0.0114144, Final residual = 0.000529528, No Iterations 2
time step continuity errors : sum local = 0.291298, global = 0.0303929, cumulative = -0.745197
ExecutionTime = 1.4 s  ClockTime = 1 s

Time = 19

smoothSolver:  Solving for Ux, Initial residual = 0.0257505, Final residual = 1.39214e-05, No Iterations 2
smoothSolver:  Solving for Uy, Initial residual = 0.0254303, Final residual = 1.41917e-05, No Iterations 2
smoothSolver:  Solving for Uz, Initial residual = 0.0866053, Final residual = 3.46596e-05, No Iterations 2
GAMG:  Solving for p, Initial residual = 0.0790977, Final residual = 0.00458016, No Iterations 2
GAMG:  Solving for p, Initial residual = 0.179232, Final residual = 0.0118557, No Iterations 1
GAMG:  Solving for p, Initial residual = 0.054324, Final residual = 0.00280223, No Iterations 2
GAMG:  Solving for p, Initial residual = 0.0343992, Final residual = 0.00233953, No Iterations 1
GAMG:  Solving for p, Initial residual = 0.0133686, Final residual = 0.000683945, No Iterations 2
time step continuity errors : sum local = 0.531162, global = 0.0720517, cumulative = -0.673145
ExecutionTime = 1.47 s  ClockTime = 1 s

Time = 20

smoothSolver:  Solving for Ux, Initial residual = 0.0215015, Final residual = 1.20188e-05, No Iterations 2
smoothSolver:  Solving for Uy, Initial residual = 0.0211349, Final residual = 1.21572e-05, No Iterations 2
smoothSolver:  Solving for Uz, Initial residual = 0.0575355, Final residual = 2.49318e-05, No Iterations 2
GAMG:  Solving for p, Initial residual = 0.0955231, Final residual = 0.0067475, No Iterations 2
GAMG:  Solving for p, Initial residual = 0.102677, Final residual = 0.0069343, No Iterations 1
GAMG:  Solving for p, Initial residual = 0.0334725, Final residual = 0.00177289, No Iterations 2
GAMG:  Solving for p, Initial residual = 0.0246521, Final residual = 0.00171898, No Iterations 1
GAMG:  Solving for p, Initial residual = 0.00985414, Final residual = 0.000521412, No Iterations 2
time step continuity errors : sum local = 0.679801, global = 0.0877542, cumulative = -0.585391
ExecutionTime = 1.54 s  ClockTime = 1 s

Time = 21

smoothSolver:  Solving for Ux, Initial residual = 0.0191042, Final residual = 1.08366e-05, No Iterations 2
smoothSolver:  Solving for Uy, Initial residual = 0.0192837, Final residual = 1.11288e-05, No Iterations 2
smoothSolver:  Solving for Uz, Initial residual = 0.0317025, Final residual = 1.63388e-05, No Iterations 2
GAMG:  Solving for p, Initial residual = 0.153193, Final residual = 0.0110488, No Iterations 2
GAMG:  Solving for p, Initial residual = 0.0759624, Final residual = 0.00523583, No Iterations 1
GAMG:  Solving for p, Initial residual = 0.0256844, Final residual = 0.00138299, No Iterations 2
GAMG:  Solving for p, Initial residual = 0.0201973, Final residual = 0.00144305, No Iterations 1
GAMG:  Solving for p, Initial residual = 0.00833008, Final residual = 0.000450824, No Iterations 2
time step continuity errors : sum local = 0.674751, global = 0.0829054, cumulative = -0.502486
ExecutionTime = 1.61 s  ClockTime = 1 s

Time = 22

smoothSolver:  Solving for Ux, Initial residual = 0.0187751, Final residual = 1.02562e-05, No Iterations 2
smoothSolver:  Solving for Uy, Initial residual = 0.0194733, Final residual = 1.06377e-05, No Iterations 2
smoothSolver:  Solving for Uz, Initial residual = 0.0259437, Final residual = 1.40116e-05, No Iterations 2
GAMG:  Solving for p, Initial residual = 0.217819, Final residual = 0.0132839, No Iterations 2
GAMG:  Solving for p, Initial residual = 0.057493, Final residual = 0.00408863, No Iterations 1
GAMG:  Solving for p, Initial residual = 0.0202715, Final residual = 0.00111596, No Iterations 2
GAMG:  Solving for p, Initial residual = 0.0169035, Final residual = 0.00124149, No Iterations 1
GAMG:  Solving for p, Initial residual = 0.00725224, Final residual = 0.000398894, No Iterations 2
time step continuity errors : sum local = 0.546873, global = 0.0621405, cumulative = -0.440345
ExecutionTime = 1.68 s  ClockTime = 1 s

Time = 23

smoothSolver:  Solving for Ux, Initial residual = 0.0192933, Final residual = 1.00322e-05, No Iterations 2
smoothSolver:  Solving for Uy, Initial residual = 0.0201255, Final residual = 1.04543e-05, No Iterations 2
smoothSolver:  Solving for Uz, Initial residual = 0.0350636, Final residual = 1.60943e-05, No Iterations 2
GAMG:  Solving for p, Initial residual = 0.11397, Final residual = 0.00523506, No Iterations 2
GAMG:  Solving for p, Initial residual = 0.0426836, Final residual = 0.0032222, No Iterations 1
GAMG:  Solving for p, Initial residual = 0.0167705, Final residual = 0.000942707, No Iterations 2
GAMG:  Solving for p, Initial residual = 0.0145156, Final residual = 0.00109799, No Iterations 1
GAMG:  Solving for p, Initial residual = 0.00653008, Final residual = 0.000363158, No Iterations 2
time step continuity errors : sum local = 0.363341, global = 0.0373099, cumulative = -0.403035
ExecutionTime = 1.75 s  ClockTime = 1 s

Time = 24

smoothSolver:  Solving for Ux, Initial residual = 0.019479, Final residual = 9.74379e-06, No Iterations 2
smoothSolver:  Solving for Uy, Initial residual = 0.0201694, Final residual = 1.01336e-05, No Iterations 2
smoothSolver:  Solving for Uz, Initial residual = 0.0420729, Final residual = 1.77382e-05, No Iterations 2
GAMG:  Solving for p, Initial residual = 0.0910671, Final residual = 0.00276826, No Iterations 2
GAMG:  Solving for p, Initial residual = 0.0432172, Final residual = 0.00336996, No Iterations 1
GAMG:  Solving for p, Initial residual = 0.0168715, Final residual = 0.000684147, No Iterations 2
GAMG:  Solving for p, Initial residual = 0.0117394, Final residual = 0.000982849, No Iterations 1
GAMG:  Solving for p, Initial residual = 0.00599759, Final residual = 0.000261244, No Iterations 2
time step continuity errors : sum local = 0.146443, global = 0.0018311, cumulative = -0.401204
ExecutionTime = 1.82 s  ClockTime = 1 s

Time = 25

smoothSolver:  Solving for Ux, Initial residual = 0.0188118, Final residual = 9.27745e-06, No Iterations 2
smoothSolver:  Solving for Uy, Initial residual = 0.0194148, Final residual = 9.68987e-06, No Iterations 2
smoothSolver:  Solving for Uz, Initial residual = 0.041082, Final residual = 1.68647e-05, No Iterations 2
GAMG:  Solving for p, Initial residual = 0.0878831, Final residual = 0.00393687, No Iterations 2
GAMG:  Solving for p, Initial residual = 0.134922, Final residual = 0.00889072, No Iterations 1
GAMG:  Solving for p, Initial residual = 0.0509252, Final residual = 0.00242371, No Iterations 2
GAMG:  Solving for p, Initial residual = 0.0378099, Final residual = 0.00251447, No Iterations 1
GAMG:  Solving for p, Initial residual = 0.0148493, Final residual = 0.000712904, No Iterations 2
time step continuity errors : sum local = 0.177552, global = -0.0208235, cumulative = -0.422028
ExecutionTime = 1.89 s  ClockTime = 1 s

Time = 26

smoothSolver:  Solving for Ux, Initial residual = 0.0174818, Final residual = 8.7326e-06, No Iterations 2
smoothSolver:  Solving for Uy, Initial residual = 0.0181368, Final residual = 9.12697e-06, No Iterations 2
smoothSolver:  Solving for Uz, Initial residual = 0.0328396, Final residual = 1.39121e-05, No Iterations 2
GAMG:  Solving for p, Initial residual = 0.0973319, Final residual = 0.00546931, No Iterations 2
GAMG:  Solving for p, Initial residual = 0.0988884, Final residual = 0.00655648, No Iterations 1
GAMG:  Solving for p, Initial residual = 0.0312406, Final residual = 0.00160584, No Iterations 2
GAMG:  Solving for p, Initial residual = 0.0228014, Final residual = 0.00155451, No Iterations 1
GAMG:  Solving for p, Initial residual = 0.00899484, Final residual = 0.000465697, No Iterations 2
time step continuity errors : sum local = 0.271139, global = -0.0357531, cumulative = -0.457781
ExecutionTime = 1.96 s  ClockTime = 2 s

Time = 27

smoothSolver:  Solving for Ux, Initial residual = 0.0161156, Final residual = 8.17536e-06, No Iterations 2
smoothSolver:  Solving for Uy, Initial residual = 0.0169122, Final residual = 8.60365e-06, No Iterations 2
smoothSolver:  Solving for Uz, Initial residual = 0.0224092, Final residual = 1.03367e-05, No Iterations 2
GAMG:  Solving for p, Initial residual = 0.129544, Final residual = 0.00795812, No Iterations 2
GAMG:  Solving for p, Initial residual = 0.0709704, Final residual = 0.00479545, No Iterations 1
GAMG:  Solving for p, Initial residual = 0.0235385, Final residual = 0.00124313, No Iterations 2
GAMG:  Solving for p, Initial residual = 0.0185732, Final residual = 0.0013007, No Iterations 1
GAMG:  Solving for p, Initial residual = 0.00752434, Final residual = 0.000401691, No Iterations 2
time step continuity errors : sum local = 0.314346, global = -0.0402813, cumulative = -0.498062
ExecutionTime = 2.02 s  ClockTime = 2 s

Time = 28

smoothSolver:  Solving for Ux, Initial residual = 0.0151042, Final residual = 7.77634e-06, No Iterations 2
smoothSolver:  Solving for Uy, Initial residual = 0.0160108, Final residual = 8.26024e-06, No Iterations 2
smoothSolver:  Solving for Uz, Initial residual = 0.016878, Final residual = 8.50847e-06, No Iterations 2
GAMG:  Solving for p, Initial residual = 0.232168, Final residual = 0.0133082, No Iterations 2
GAMG:  Solving for p, Initial residual = 0.0543232, Final residual = 0.00375862, No Iterations 1
GAMG:  Solving for p, Initial residual = 0.0186936, Final residual = 0.00101461, No Iterations 2
GAMG:  Solving for p, Initial residual = 0.0155977, Final residual = 0.00112171, No Iterations 1
GAMG:  Solving for p, Initial residual = 0.00651722, Final residual = 0.000356114, No Iterations 2
time step continuity errors : sum local = 0.294847, global = -0.0360114, cumulative = -0.534073
ExecutionTime = 2.1 s  ClockTime = 2 s

Time = 29

smoothSolver:  Solving for Ux, Initial residual = 0.0144927, Final residual = 7.52098e-06, No Iterations 2
smoothSolver:  Solving for Uy, Initial residual = 0.0153186, Final residual = 8.03265e-06, No Iterations 2
smoothSolver:  Solving for Uz, Initial residual = 0.0184912, Final residual = 8.80938e-06, No Iterations 2
GAMG:  Solving for p, Initial residual = 0.116222, Final residual = 0.00557862, No Iterations 2
GAMG:  Solving for p, Initial residual = 0.040864, Final residual = 0.00296188, No Iterations 1
GAMG:  Solving for p, Initial residual = 0.0149772, Final residual = 0.000841937, No Iterations 2
GAMG:  Solving for p, Initial residual = 0.0131989, Final residual = 0.000977021, No Iterations 1
GAMG:  Solving for p, Initial residual = 0.00571004, Final residual = 0.000318124, No Iterations 2
time step continuity errors : sum local = 0.233467, global = -0.0267014, cumulative = -0.560775
ExecutionTime = 2.16 s  ClockTime = 2 s

Time = 30

smoothSolver:  Solving for Ux, Initial residual = 0.0139632, Final residual = 7.3204e-06, No Iterations 2
smoothSolver:  Solving for Uy, Initial residual = 0.0145582, Final residual = 7.76514e-06, No Iterations 2
smoothSolver:  Solving for Uz, Initial residual = 0.0221616, Final residual = 9.83484e-06, No Iterations 2
GAMG:  Solving for p, Initial residual = 0.0850918, Final residual = 0.00842074, No Iterations 1
GAMG:  Solving for p, Initial residual = 0.0307752, Final residual = 0.0014235, No Iterations 2
GAMG:  Solving for p, Initial residual = 0.0192889, Final residual = 0.00150284, No Iterations 1
GAMG:  Solving for p, Initial residual = 0.00845157, Final residual = 0.000472259, No Iterations 2
GAMG:  Solving for p, Initial residual = 0.00764498, Final residual = 0.000602675, No Iterations 1
time step continuity errors : sum local = 0.333969, global = -0.12719, cumulative = -0.687965
ExecutionTime = 2.23 s  ClockTime = 2 s

Time = 31

smoothSolver:  Solving for Ux, Initial residual = 0.0133568, Final residual = 7.03413e-06, No Iterations 2
smoothSolver:  Solving for Uy, Initial residual = 0.0137166, Final residual = 7.39993e-06, No Iterations 2
smoothSolver:  Solving for Uz, Initial residual = 0.0234189, Final residual = 9.95888e-06, No Iterations 2
GAMG:  Solving for p, Initial residual = 0.0752063, Final residual = 0.00750553, No Iterations 1
GAMG:  Solving for p, Initial residual = 0.0296233, Final residual = 0.0012781, No Iterations 2
GAMG:  Solving for p, Initial residual = 0.020771, Final residual = 0.00152873, No Iterations 1
GAMG:  Solving for p, Initial residual = 0.00871276, Final residual = 0.000373126, No Iterations 2
GAMG:  Solving for p, Initial residual = 0.00668068, Final residual = 0.000515118, No Iterations 1
time step continuity errors : sum local = 0.183895, global = 0.0200904, cumulative = -0.667874
ExecutionTime = 2.3 s  ClockTime = 2 s

Time = 32

smoothSolver:  Solving for Ux, Initial residual = 0.0127509, Final residual = 6.72435e-06, No Iterations 2
smoothSolver:  Solving for Uy, Initial residual = 0.012965, Final residual = 6.99039e-06, No Iterations 2
smoothSolver:  Solving for Uz, Initial residual = 0.0218053, Final residual = 9.2854e-06, No Iterations 2
GAMG:  Solving for p, Initial residual = 0.0736325, Final residual = 0.00730184, No Iterations 1
GAMG:  Solving for p, Initial residual = 0.0425348, Final residual = 0.00226742, No Iterations 2
GAMG:  Solving for p, Initial residual = 0.0520768, Final residual = 0.00337967, No Iterations 1
GAMG:  Solving for p, Initial residual = 0.0200953, Final residual = 0.000950779, No Iterations 2
GAMG:  Solving for p, Initial residual = 0.0207222, Final residual = 0.00142851, No Iterations 1
time step continuity errors : sum local = 0.233467, global = 0.0741365, cumulative = -0.593738
ExecutionTime = 2.37 s  ClockTime = 2 s

Time = 33

smoothSolver:  Solving for Ux, Initial residual = 0.0122469, Final residual = 6.34861e-06, No Iterations 2
smoothSolver:  Solving for Uy, Initial residual = 0.0124377, Final residual = 6.63231e-06, No Iterations 2
smoothSolver:  Solving for Uz, Initial residual = 0.0180782, Final residual = 8.03337e-06, No Iterations 2
GAMG:  Solving for p, Initial residual = 0.0785406, Final residual = 0.00358833, No Iterations 2
GAMG:  Solving for p, Initial residual = 0.0931312, Final residual = 0.00618669, No Iterations 1
GAMG:  Solving for p, Initial residual = 0.029707, Final residual = 0.00148667, No Iterations 2
GAMG:  Solving for p, Initial residual = 0.0212472, Final residual = 0.00145976, No Iterations 1
GAMG:  Solving for p, Initial residual = 0.00860586, Final residual = 0.000443825, No Iterations 2
time step continuity errors : sum local = 0.131473, global = 0.0173044, cumulative = -0.576433
ExecutionTime = 2.43 s  ClockTime = 2 s

Time = 34

smoothSolver:  Solving for Ux, Initial residual = 0.0118976, Final residual = 6.05707e-06, No Iterations 2
smoothSolver:  Solving for Uy, Initial residual = 0.0121737, Final residual = 6.37008e-06, No Iterations 2
smoothSolver:  Solving for Uz, Initial residual = 0.0142831, Final residual = 6.7688e-06, No Iterations 2
GAMG:  Solving for p, Initial residual = 0.0923598, Final residual = 0.00422661, No Iterations 2
GAMG:  Solving for p, Initial residual = 0.0677968, Final residual = 0.00458213, No Iterations 1
GAMG:  Solving for p, Initial residual = 0.0226279, Final residual = 0.00117579, No Iterations 2
GAMG:  Solving for p, Initial residual = 0.0176368, Final residual = 0.00124208, No Iterations 1
GAMG:  Solving for p, Initial residual = 0.00731975, Final residual = 0.000388479, No Iterations 2
time step continuity errors : sum local = 0.142323, global = 0.0183853, cumulative = -0.558048
ExecutionTime = 2.51 s  ClockTime = 2 s

Time = 35

smoothSolver:  Solving for Ux, Initial residual = 0.0117235, Final residual = 5.85508e-06, No Iterations 2
smoothSolver:  Solving for Uy, Initial residual = 0.0120931, Final residual = 6.15921e-06, No Iterations 2
smoothSolver:  Solving for Uz, Initial residual = 0.012352, Final residual = 5.99527e-06, No Iterations 2
GAMG:  Solving for p, Initial residual = 0.119455, Final residual = 0.0116078, No Iterations 1
GAMG:  Solving for p, Initial residual = 0.0569311, Final residual = 0.00306728, No Iterations 2
GAMG:  Solving for p, Initial residual = 0.030156, Final residual = 0.00210562, No Iterations 1
GAMG:  Solving for p, Initial residual = 0.0119104, Final residual = 0.000634569, No Iterations 2
GAMG:  Solving for p, Initial residual = 0.0105577, Final residual = 0.000772151, No Iterations 1
time step continuity errors : sum local = 0.288011, global = 0.113476, cumulative = -0.444573
ExecutionTime = 2.57 s  ClockTime = 2 s

Time = 36

smoothSolver:  Solving for Ux, Initial residual = 0.0115873, Final residual = 5.72269e-06, No Iterations 2
smoothSolver:  Solving for Uy, Initial residual = 0.0120121, Final residual = 5.96535e-06, No Iterations 2
smoothSolver:  Solving for Uz, Initial residual = 0.0120383, Final residual = 5.74012e-06, No Iterations 2
GAMG:  Solving for p, Initial residual = 0.158769, Final residual = 0.0133183, No Iterations 1
GAMG:  Solving for p, Initial residual = 0.0464939, Final residual = 0.00228929, No Iterations 2
GAMG:  Solving for p, Initial residual = 0.0266492, Final residual = 0.00194089, No Iterations 1
GAMG:  Solving for p, Initial residual = 0.0108431, Final residual = 0.000589549, No Iterations 2
GAMG:  Solving for p, Initial residual = 0.00960519, Final residual = 0.000731782, No Iterations 1
time step continuity errors : sum local = 0.228729, global = 0.0930071, cumulative = -0.351565
ExecutionTime = 2.64 s  ClockTime = 2 s

Time = 37

smoothSolver:  Solving for Ux, Initial residual = 0.0114175, Final residual = 5.54444e-06, No Iterations 2
smoothSolver:  Solving for Uy, Initial residual = 0.0118558, Final residual = 5.7564e-06, No Iterations 2
smoothSolver:  Solving for Uz, Initial residual = 0.0122193, Final residual = 5.59627e-06, No Iterations 2
GAMG:  Solving for p, Initial residual = 0.131106, Final residual = 0.0116903, No Iterations 1
GAMG:  Solving for p, Initial residual = 0.0421327, Final residual = 0.00157083, No Iterations 2
GAMG:  Solving for p, Initial residual = 0.0228542, Final residual = 0.00180108, No Iterations 1
GAMG:  Solving for p, Initial residual = 0.0101234, Final residual = 0.000518141, No Iterations 2
GAMG:  Solving for p, Initial residual = 0.00834402, Final residual = 0.000678853, No Iterations 1
time step continuity errors : sum local = 0.14997, global = 0.0559995, cumulative = -0.295566
ExecutionTime = 2.7 s  ClockTime = 2 s

Time = 38

smoothSolver:  Solving for Ux, Initial residual = 0.0111728, Final residual = 5.4116e-06, No Iterations 2
smoothSolver:  Solving for Uy, Initial residual = 0.0116125, Final residual = 5.61752e-06, No Iterations 2
smoothSolver:  Solving for Uz, Initial residual = 0.0120957, Final residual = 5.46535e-06, No Iterations 2
GAMG:  Solving for p, Initial residual = 0.120899, Final residual = 0.0105123, No Iterations 1
GAMG:  Solving for p, Initial residual = 0.0420766, Final residual = 0.00179479, No Iterations 2
GAMG:  Solving for p, Initial residual = 0.0295139, Final residual = 0.00213931, No Iterations 1
GAMG:  Solving for p, Initial residual = 0.0117356, Final residual = 0.000545362, No Iterations 2
GAMG:  Solving for p, Initial residual = 0.00849986, Final residual = 0.000656969, No Iterations 1
time step continuity errors : sum local = 0.10583, global = -0.0155181, cumulative = -0.311084
ExecutionTime = 2.77 s  ClockTime = 2 s

Time = 39

smoothSolver:  Solving for Ux, Initial residual = 0.0108916, Final residual = 5.2186e-06, No Iterations 2
smoothSolver:  Solving for Uy, Initial residual = 0.0113226, Final residual = 5.44717e-06, No Iterations 2
smoothSolver:  Solving for Uz, Initial residual = 0.0115731, Final residual = 5.19466e-06, No Iterations 2
GAMG:  Solving for p, Initial residual = 0.123574, Final residual = 0.0102317, No Iterations 1
GAMG:  Solving for p, Initial residual = 0.0469872, Final residual = 0.00238232, No Iterations 2
GAMG:  Solving for p, Initial residual = 0.0250657, Final residual = 0.0016799, No Iterations 1
GAMG:  Solving for p, Initial residual = 0.00910196, Final residual = 0.000451811, No Iterations 2
GAMG:  Solving for p, Initial residual = 0.00739144, Final residual = 0.000537212, No Iterations 1
time step continuity errors : sum local = 0.132592, global = -0.0417991, cumulative = -0.352883
ExecutionTime = 2.83 s  ClockTime = 2 s

Time = 40

smoothSolver:  Solving for Ux, Initial residual = 0.0106041, Final residual = 5.05998e-06, No Iterations 2
smoothSolver:  Solving for Uy, Initial residual = 0.01104, Final residual = 5.33704e-06, No Iterations 2
smoothSolver:  Solving for Uz, Initial residual = 0.0108578, Final residual = 4.96087e-06, No Iterations 2
GAMG:  Solving for p, Initial residual = 0.138388, Final residual = 0.0116357, No Iterations 1
GAMG:  Solving for p, Initial residual = 0.0370167, Final residual = 0.00197442, No Iterations 2
GAMG:  Solving for p, Initial residual = 0.0217911, Final residual = 0.00147227, No Iterations 1
GAMG:  Solving for p, Initial residual = 0.00808116, Final residual = 0.000419207, No Iterations 2
GAMG:  Solving for p, Initial residual = 0.00707123, Final residual = 0.00051362, No Iterations 1
time step continuity errors : sum local = 0.158584, global = -0.0575583, cumulative = -0.410441
ExecutionTime = 2.9 s  ClockTime = 2 s

Time = 41

smoothSolver:  Solving for Ux, Initial residual = 0.0103525, Final residual = 4.94403e-06, No Iterations 2
smoothSolver:  Solving for Uy, Initial residual = 0.0107721, Final residual = 5.21726e-06, No Iterations 2
smoothSolver:  Solving for Uz, Initial residual = 0.0103456, Final residual = 4.77278e-06, No Iterations 2
GAMG:  Solving for p, Initial residual = 0.111857, Final residual = 0.00920056, No Iterations 1
GAMG:  Solving for p, Initial residual = 0.030427, Final residual = 0.00162375, No Iterations 2
GAMG:  Solving for p, Initial residual = 0.0192782, Final residual = 0.00133085, No Iterations 1
GAMG:  Solving for p, Initial residual = 0.00736641, Final residual = 0.000392787, No Iterations 2
GAMG:  Solving for p, Initial residual = 0.00665015, Final residual = 0.000489723, No Iterations 1
time step continuity errors : sum local = 0.165506, global = -0.0637245, cumulative = -0.474166
ExecutionTime = 2.97 s  ClockTime = 3 s

Time = 42

smoothSolver:  Solving for Ux, Initial residual = 0.010129, Final residual = 4.84224e-06, No Iterations 2
smoothSolver:  Solving for Uy, Initial residual = 0.0105205, Final residual = 5.10637e-06, No Iterations 2
smoothSolver:  Solving for Uz, Initial residual = 0.0102123, Final residual = 4.69649e-06, No Iterations 2
GAMG:  Solving for p, Initial residual = 0.0908557, Final residual = 0.00706183, No Iterations 1
GAMG:  Solving for p, Initial residual = 0.0254688, Final residual = 0.00130083, No Iterations 2
GAMG:  Solving for p, Initial residual = 0.0167862, Final residual = 0.00119333, No Iterations 1
GAMG:  Solving for p, Initial residual = 0.00662432, Final residual = 0.000363392, No Iterations 2
GAMG:  Solving for p, Initial residual = 0.00606574, Final residual = 0.000458379, No Iterations 1
time step continuity errors : sum local = 0.153741, global = -0.0612945, cumulative = -0.53546
ExecutionTime = 3.03 s  ClockTime = 3 s

Time = 43

smoothSolver:  Solving for Ux, Initial residual = 0.00990281, Final residual = 4.75655e-06, No Iterations 2
smoothSolver:  Solving for Uy, Initial residual = 0.0102601, Final residual = 5.00131e-06, No Iterations 2
smoothSolver:  Solving for Uz, Initial residual = 0.0102677, Final residual = 4.65198e-06, No Iterations 2
GAMG:  Solving for p, Initial residual = 0.078463, Final residual = 0.00608179, No Iterations 1
GAMG:  Solving for p, Initial residual = 0.0224749, Final residual = 0.00100443, No Iterations 2
GAMG:  Solving for p, Initial residual = 0.0136978, Final residual = 0.00101696, No Iterations 1
GAMG:  Solving for p, Initial residual = 0.00570964, Final residual = 0.000324462, No Iterations 2
GAMG:  Solving for p, Initial residual = 0.00522373, Final residual = 0.000411848, No Iterations 1
time step continuity errors : sum local = 0.127494, global = -0.0509708, cumulative = -0.586431
ExecutionTime = 3.11 s  ClockTime = 3 s

Time = 44

smoothSolver:  Solving for Ux, Initial residual = 0.00967621, Final residual = 4.65015e-06, No Iterations 2
smoothSolver:  Solving for Uy, Initial residual = 0.0100033, Final residual = 4.86607e-06, No Iterations 2
smoothSolver:  Solving for Uz, Initial residual = 0.0102903, Final residual = 4.62626e-06, No Iterations 2
GAMG:  Solving for p, Initial residual = 0.0718512, Final residual = 0.00561575, No Iterations 1
GAMG:  Solving for p, Initial residual = 0.0210667, Final residual = 0.000738948, No Iterations 2
GAMG:  Solving for p, Initial residual = 0.0110236, Final residual = 0.000854426, No Iterations 1
GAMG:  Solving for p, Initial residual = 0.00492384, Final residual = 0.000255368, No Iterations 2
GAMG:  Solving for p, Initial residual = 0.00404008, Final residual = 0.00033408, No Iterations 1
time step continuity errors : sum local = 0.0906929, global = -0.0333338, cumulative = -0.619765
ExecutionTime = 3.17 s  ClockTime = 3 s

Time = 45

smoothSolver:  Solving for Ux, Initial residual = 0.00945747, Final residual = 4.52182e-06, No Iterations 2
smoothSolver:  Solving for Uy, Initial residual = 0.00977732, Final residual = 4.73292e-06, No Iterations 2
smoothSolver:  Solving for Uz, Initial residual = 0.0101464, Final residual = 4.52397e-06, No Iterations 2
GAMG:  Solving for p, Initial residual = 0.0689798, Final residual = 0.00521164, No Iterations 1
GAMG:  Solving for p, Initial residual = 0.0205242, Final residual = 0.00203052, No Iterations 1
GAMG:  Solving for p, Initial residual = 0.00940554, Final residual = 0.000396164, No Iterations 2
GAMG:  Solving for p, Initial residual = 0.00679864, Final residual = 0.000498788, No Iterations 1
GAMG:  Solving for p, Initial residual = 0.00311505, Final residual = 0.00013412, No Iterations 2
time step continuity errors : sum local = 0.0321288, global = 0.00679063, cumulative = -0.612974
ExecutionTime = 3.23 s  ClockTime = 3 s

Time = 46

smoothSolver:  Solving for Ux, Initial residual = 0.00925464, Final residual = 4.4108e-06, No Iterations 2
smoothSolver:  Solving for Uy, Initial residual = 0.00959102, Final residual = 4.59292e-06, No Iterations 2
smoothSolver:  Solving for Uz, Initial residual = 0.00987, Final residual = 4.3883e-06, No Iterations 2
GAMG:  Solving for p, Initial residual = 0.0682338, Final residual = 0.0049271, No Iterations 1
GAMG:  Solving for p, Initial residual = 0.0205997, Final residual = 0.00199131, No Iterations 1
GAMG:  Solving for p, Initial residual = 0.0109802, Final residual = 0.000494056, No Iterations 2
GAMG:  Solving for p, Initial residual = 0.00915045, Final residual = 0.000614817, No Iterations 1
GAMG:  Solving for p, Initial residual = 0.00387686, Final residual = 0.000188891, No Iterations 2
time step continuity errors : sum local = 0.0389686, global = 0.00460035, cumulative = -0.608374
ExecutionTime = 3.3 s  ClockTime = 3 s

Time = 47

smoothSolver:  Solving for Ux, Initial residual = 0.00906788, Final residual = 4.31041e-06, No Iterations 2
smoothSolver:  Solving for Uy, Initial residual = 0.00943147, Final residual = 4.50152e-06, No Iterations 2
smoothSolver:  Solving for Uz, Initial residual = 0.00949706, Final residual = 4.22392e-06, No Iterations 2
GAMG:  Solving for p, Initial residual = 0.0694276, Final residual = 0.00487612, No Iterations 1
GAMG:  Solving for p, Initial residual = 0.0211708, Final residual = 0.00089478, No Iterations 2
GAMG:  Solving for p, Initial residual = 0.0174445, Final residual = 0.00116609, No Iterations 1
GAMG:  Solving for p, Initial residual = 0.00690195, Final residual = 0.000341949, No Iterations 2
GAMG:  Solving for p, Initial residual = 0.0063565, Final residual = 0.000466521, No Iterations 1
time step continuity errors : sum local = 0.0830242, global = 0.0279781, cumulative = -0.580396
ExecutionTime = 3.37 s  ClockTime = 3 s

Time = 48

smoothSolver:  Solving for Ux, Initial residual = 0.00890817, Final residual = 4.20612e-06, No Iterations 2
smoothSolver:  Solving for Uy, Initial residual = 0.00929227, Final residual = 4.4293e-06, No Iterations 2
smoothSolver:  Solving for Uz, Initial residual = 0.00914265, Final residual = 4.07454e-06, No Iterations 2
GAMG:  Solving for p, Initial residual = 0.0721456, Final residual = 0.00500776, No Iterations 1
GAMG:  Solving for p, Initial residual = 0.0216323, Final residual = 0.000905936, No Iterations 2
GAMG:  Solving for p, Initial residual = 0.017787, Final residual = 0.0012265, No Iterations 1
GAMG:  Solving for p, Initial residual = 0.00717202, Final residual = 0.00037106, No Iterations 2
GAMG:  Solving for p, Initial residual = 0.0068548, Final residual = 0.000516556, No Iterations 1
time step continuity errors : sum local = 0.0863583, global = 0.0312675, cumulative = -0.549128
ExecutionTime = 3.43 s  ClockTime = 3 s

Time = 49

smoothSolver:  Solving for Ux, Initial residual = 0.00875444, Final residual = 4.10443e-06, No Iterations 2
smoothSolver:  Solving for Uy, Initial residual = 0.00915959, Final residual = 4.37063e-06, No Iterations 2
smoothSolver:  Solving for Uz, Initial residual = 0.00887084, Final residual = 3.93462e-06, No Iterations 2
GAMG:  Solving for p, Initial residual = 0.075073, Final residual = 0.00520849, No Iterations 1
GAMG:  Solving for p, Initial residual = 0.0217099, Final residual = 0.00215757, No Iterations 1
GAMG:  Solving for p, Initial residual = 0.0117748, Final residual = 0.000587488, No Iterations 2
GAMG:  Solving for p, Initial residual = 0.0101778, Final residual = 0.000757969, No Iterations 1
GAMG:  Solving for p, Initial residual = 0.00450733, Final residual = 0.000262868, No Iterations 2
time step continuity errors : sum local = 0.045728, global = 0.00590213, cumulative = -0.543226
ExecutionTime = 3.5 s  ClockTime = 3 s

Time = 50

smoothSolver:  Solving for Ux, Initial residual = 0.00861168, Final residual = 4.01684e-06, No Iterations 2
smoothSolver:  Solving for Uy, Initial residual = 0.00902239, Final residual = 4.30699e-06, No Iterations 2
smoothSolver:  Solving for Uz, Initial residual = 0.0086728, Final residual = 3.84415e-06, No Iterations 2
GAMG:  Solving for p, Initial residual = 0.0776907, Final residual = 0.00540421, No Iterations 1
GAMG:  Solving for p, Initial residual = 0.0217443, Final residual = 0.00209167, No Iterations 1
GAMG:  Solving for p, Initial residual = 0.00985407, Final residual = 0.000476435, No Iterations 2
GAMG:  Solving for p, Initial residual = 0.00792047, Final residual = 0.000621763, No Iterations 1
GAMG:  Solving for p, Initial residual = 0.00361989, Final residual = 0.000217103, No Iterations 2
time step continuity errors : sum local = 0.0399771, global = 0.00487715, cumulative = -0.538349
ExecutionTime = 3.57 s  ClockTime = 3 s

Time = 51

smoothSolver:  Solving for Ux, Initial residual = 0.00847481, Final residual = 3.94126e-06, No Iterations 2
smoothSolver:  Solving for Uy, Initial residual = 0.00888488, Final residual = 4.25395e-06, No Iterations 2
smoothSolver:  Solving for Uz, Initial residual = 0.00853267, Final residual = 3.74943e-06, No Iterations 2
GAMG:  Solving for p, Initial residual = 0.0784391, Final residual = 0.00538595, No Iterations 1
GAMG:  Solving for p, Initial residual = 0.0214981, Final residual = 0.00210502, No Iterations 1
GAMG:  Solving for p, Initial residual = 0.00885373, Final residual = 0.000389134, No Iterations 2
GAMG:  Solving for p, Initial residual = 0.00577741, Final residual = 0.000494024, No Iterations 1
GAMG:  Solving for p, Initial residual = 0.00279154, Final residual = 0.000149037, No Iterations 2
time step continuity errors : sum local = 0.0295553, global = 0.0038689, cumulative = -0.53448
ExecutionTime = 3.63 s  ClockTime = 3 s

Time = 52

smoothSolver:  Solving for Ux, Initial residual = 0.00833505, Final residual = 3.86356e-06, No Iterations 2
smoothSolver:  Solving for Uy, Initial residual = 0.00874616, Final residual = 4.17078e-06, No Iterations 2
smoothSolver:  Solving for Uz, Initial residual = 0.00841231, Final residual = 3.67346e-06, No Iterations 2
GAMG:  Solving for p, Initial residual = 0.0775234, Final residual = 0.00516847, No Iterations 1
GAMG:  Solving for p, Initial residual = 0.0208477, Final residual = 0.00196801, No Iterations 1
GAMG:  Solving for p, Initial residual = 0.00838502, Final residual = 0.00037811, No Iterations 2
GAMG:  Solving for p, Initial residual = 0.00542495, Final residual = 0.00042015, No Iterations 1
GAMG:  Solving for p, Initial residual = 0.00247821, Final residual = 0.000123412, No Iterations 2
time step continuity errors : sum local = 0.0259021, global = -0.00424318, cumulative = -0.538723
ExecutionTime = 3.69 s  ClockTime = 3 s

Time = 53

smoothSolver:  Solving for Ux, Initial residual = 0.00821171, Final residual = 3.77993e-06, No Iterations 2
smoothSolver:  Solving for Uy, Initial residual = 0.00861424, Final residual = 4.07559e-06, No Iterations 2
smoothSolver:  Solving for Uz, Initial residual = 0.00829731, Final residual = 3.58031e-06, No Iterations 2
GAMG:  Solving for p, Initial residual = 0.075208, Final residual = 0.00488511, No Iterations 1
GAMG:  Solving for p, Initial residual = 0.019996, Final residual = 0.00180414, No Iterations 1
GAMG:  Solving for p, Initial residual = 0.00812851, Final residual = 0.000419523, No Iterations 2
GAMG:  Solving for p, Initial residual = 0.00594711, Final residual = 0.000417996, No Iterations 1
GAMG:  Solving for p, Initial residual = 0.00249644, Final residual = 0.000126844, No Iterations 2
time step continuity errors : sum local = 0.0285716, global = -0.00344114, cumulative = -0.542165
ExecutionTime = 3.77 s  ClockTime = 3 s

Time = 54

smoothSolver:  Solving for Ux, Initial residual = 0.0080855, Final residual = 3.69924e-06, No Iterations 2
smoothSolver:  Solving for Uy, Initial residual = 0.00847515, Final residual = 3.98019e-06, No Iterations 2
smoothSolver:  Solving for Uz, Initial residual = 0.00818548, Final residual = 3.53208e-06, No Iterations 2
GAMG:  Solving for p, Initial residual = 0.0721687, Final residual = 0.00461748, No Iterations 1
GAMG:  Solving for p, Initial residual = 0.0190377, Final residual = 0.00173926, No Iterations 1
GAMG:  Solving for p, Initial residual = 0.00800282, Final residual = 0.000430963, No Iterations 2
GAMG:  Solving for p, Initial residual = 0.00609113, Final residual = 0.000436442, No Iterations 1
GAMG:  Solving for p, Initial residual = 0.00254902, Final residual = 0.000142354, No Iterations 2
time step continuity errors : sum local = 0.0336215, global = -0.0041858, cumulative = -0.54635
ExecutionTime = 3.83 s  ClockTime = 3 s

Time = 55

smoothSolver:  Solving for Ux, Initial residual = 0.0079537, Final residual = 3.62486e-06, No Iterations 2
smoothSolver:  Solving for Uy, Initial residual = 0.0083443, Final residual = 3.8865e-06, No Iterations 2
smoothSolver:  Solving for Uz, Initial residual = 0.0080936, Final residual = 3.49464e-06, No Iterations 2
GAMG:  Solving for p, Initial residual = 0.0688241, Final residual = 0.00441409, No Iterations 1
GAMG:  Solving for p, Initial residual = 0.0181977, Final residual = 0.00168386, No Iterations 1
GAMG:  Solving for p, Initial residual = 0.00768735, Final residual = 0.000421496, No Iterations 2
GAMG:  Solving for p, Initial residual = 0.00587547, Final residual = 0.000437391, No Iterations 1
GAMG:  Solving for p, Initial residual = 0.00250967, Final residual = 0.000151358, No Iterations 2
time step continuity errors : sum local = 0.0366533, global = -0.00444777, cumulative = -0.550798
ExecutionTime = 3.89 s  ClockTime = 3 s

Time = 56

smoothSolver:  Solving for Ux, Initial residual = 0.00781542, Final residual = 3.55614e-06, No Iterations 2
smoothSolver:  Solving for Uy, Initial residual = 0.00820883, Final residual = 3.78317e-06, No Iterations 2
smoothSolver:  Solving for Uz, Initial residual = 0.00800669, Final residual = 3.47851e-06, No Iterations 2
GAMG:  Solving for p, Initial residual = 0.0655923, Final residual = 0.00426255, No Iterations 1
GAMG:  Solving for p, Initial residual = 0.0174702, Final residual = 0.00161612, No Iterations 1
GAMG:  Solving for p, Initial residual = 0.00727121, Final residual = 0.000379508, No Iterations 2
GAMG:  Solving for p, Initial residual = 0.00539996, Final residual = 0.000411527, No Iterations 1
GAMG:  Solving for p, Initial residual = 0.00236156, Final residual = 0.000142401, No Iterations 2
time step continuity errors : sum local = 0.034623, global = -0.00404287, cumulative = -0.554841
ExecutionTime = 3.96 s  ClockTime = 4 s

Time = 57

smoothSolver:  Solving for Ux, Initial residual = 0.00769565, Final residual = 3.50562e-06, No Iterations 2
smoothSolver:  Solving for Uy, Initial residual = 0.00808286, Final residual = 3.7141e-06, No Iterations 2
smoothSolver:  Solving for Uz, Initial residual = 0.00791936, Final residual = 3.427e-06, No Iterations 2
GAMG:  Solving for p, Initial residual = 0.0633364, Final residual = 0.0041363, No Iterations 1
GAMG:  Solving for p, Initial residual = 0.0169038, Final residual = 0.00156966, No Iterations 1
GAMG:  Solving for p, Initial residual = 0.00689867, Final residual = 0.000330069, No Iterations 2
GAMG:  Solving for p, Initial residual = 0.0047551, Final residual = 0.000377616, No Iterations 1
GAMG:  Solving for p, Initial residual = 0.00216106, Final residual = 0.000129346, No Iterations 2
time step continuity errors : sum local = 0.0310843, global = -0.00371156, cumulative = -0.558553
ExecutionTime = 4.03 s  ClockTime = 4 s

Time = 58

smoothSolver:  Solving for Ux, Initial residual = 0.00757249, Final residual = 3.44814e-06, No Iterations 2
smoothSolver:  Solving for Uy, Initial residual = 0.00796291, Final residual = 3.65268e-06, No Iterations 2
smoothSolver:  Solving for Uz, Initial residual = 0.00782381, Final residual = 3.39267e-06, No Iterations 2
GAMG:  Solving for p, Initial residual = 0.0617993, Final residual = 0.00401351, No Iterations 1
GAMG:  Solving for p, Initial residual = 0.0165041, Final residual = 0.00154169, No Iterations 1
GAMG:  Solving for p, Initial residual = 0.00664055, Final residual = 0.000287483, No Iterations 2
GAMG:  Solving for p, Initial residual = 0.0042009, Final residual = 0.000351188, No Iterations 1
GAMG:  Solving for p, Initial residual = 0.001997, Final residual = 0.000113475, No Iterations 2
time step continuity errors : sum local = 0.0267914, global = -0.00451092, cumulative = -0.563063
ExecutionTime = 4.09 s  ClockTime = 4 s

Time = 59

smoothSolver:  Solving for Ux, Initial residual = 0.00745721, Final residual = 3.37337e-06, No Iterations 2
smoothSolver:  Solving for Uy, Initial residual = 0.00785849, Final residual = 3.6077e-06, No Iterations 2
smoothSolver:  Solving for Uz, Initial residual = 0.00771952, Final residual = 3.31259e-06, No Iterations 2
GAMG:  Solving for p, Initial residual = 0.0612947, Final residual = 0.00395837, No Iterations 1
GAMG:  Solving for p, Initial residual = 0.0163912, Final residual = 0.00154039, No Iterations 1
GAMG:  Solving for p, Initial residual = 0.00659748, Final residual = 0.000293449, No Iterations 2
GAMG:  Solving for p, Initial residual = 0.00401073, Final residual = 0.000357015, No Iterations 1
GAMG:  Solving for p, Initial residual = 0.0020011, Final residual = 0.000107629, No Iterations 2
time step continuity errors : sum local = 0.0249195, global = -0.00666934, cumulative = -0.569733
ExecutionTime = 4.16 s  ClockTime = 4 s

Time = 60

smoothSolver:  Solving for Ux, Initial residual = 0.00733987, Final residual = 3.31998e-06, No Iterations 2
smoothSolver:  Solving for Uy, Initial residual = 0.00776405, Final residual = 3.56511e-06, No Iterations 2
smoothSolver:  Solving for Uz, Initial residual = 0.00760106, Final residual = 3.26894e-06, No Iterations 2
GAMG:  Solving for p, Initial residual = 0.0606671, Final residual = 0.00388514, No Iterations 1
GAMG:  Solving for p, Initial residual = 0.0161909, Final residual = 0.00152021, No Iterations 1
GAMG:  Solving for p, Initial residual = 0.00652955, Final residual = 0.00029054, No Iterations 2
GAMG:  Solving for p, Initial residual = 0.00400623, Final residual = 0.00035508, No Iterations 1
GAMG:  Solving for p, Initial residual = 0.00200855, Final residual = 0.000106245, No Iterations 2
time step continuity errors : sum local = 0.0243516, global = 0.00257026, cumulative = -0.567163
ExecutionTime = 4.23 s  ClockTime = 4 s

Time = 61

smoothSolver:  Solving for Ux, Initial residual = 0.00723466, Final residual = 3.27305e-06, No Iterations 2
smoothSolver:  Solving for Uy, Initial residual = 0.00767523, Final residual = 3.52365e-06, No Iterations 2
smoothSolver:  Solving for Uz, Initial residual = 0.0074832, Final residual = 3.219e-06, No Iterations 2
GAMG:  Solving for p, Initial residual = 0.0605978, Final residual = 0.00386625, No Iterations 1
GAMG:  Solving for p, Initial residual = 0.0161683, Final residual = 0.00152542, No Iterations 1
GAMG:  Solving for p, Initial residual = 0.00651264, Final residual = 0.000293159, No Iterations 2
GAMG:  Solving for p, Initial residual = 0.00417525, Final residual = 0.000355182, No Iterations 1
GAMG:  Solving for p, Initial residual = 0.00203356, Final residual = 0.000114572, No Iterations 2
time step continuity errors : sum local = 0.0258897, global = 0.00447063, cumulative = -0.562692
ExecutionTime = 4.3 s  ClockTime = 4 s

Time = 62

smoothSolver:  Solving for Ux, Initial residual = 0.00714175, Final residual = 3.25082e-06, No Iterations 2
smoothSolver:  Solving for Uy, Initial residual = 0.00759736, Final residual = 3.5078e-06, No Iterations 2
smoothSolver:  Solving for Uz, Initial residual = 0.00736153, Final residual = 3.19265e-06, No Iterations 2
GAMG:  Solving for p, Initial residual = 0.0606599, Final residual = 0.00388211, No Iterations 1
GAMG:  Solving for p, Initial residual = 0.0161575, Final residual = 0.0015405, No Iterations 1
GAMG:  Solving for p, Initial residual = 0.00652361, Final residual = 0.000297599, No Iterations 2
GAMG:  Solving for p, Initial residual = 0.00428106, Final residual = 0.000359113, No Iterations 1
GAMG:  Solving for p, Initial residual = 0.00204173, Final residual = 0.000114564, No Iterations 2
time step continuity errors : sum local = 0.025699, global = 0.00385895, cumulative = -0.558833
ExecutionTime = 4.36 s  ClockTime = 4 s

Time = 63

smoothSolver:  Solving for Ux, Initial residual = 0.00705799, Final residual = 3.20898e-06, No Iterations 2
smoothSolver:  Solving for Uy, Initial residual = 0.00751631, Final residual = 3.45175e-06, No Iterations 2
smoothSolver:  Solving for Uz, Initial residual = 0.00724385, Final residual = 3.10033e-06, No Iterations 2
GAMG:  Solving for p, Initial residual = 0.0609986, Final residual = 0.00393746, No Iterations 1
GAMG:  Solving for p, Initial residual = 0.0162724, Final residual = 0.00155857, No Iterations 1
GAMG:  Solving for p, Initial residual = 0.00657425, Final residual = 0.000295836, No Iterations 2
GAMG:  Solving for p, Initial residual = 0.00420672, Final residual = 0.000359181, No Iterations 1
GAMG:  Solving for p, Initial residual = 0.00201402, Final residual = 0.000107933, No Iterations 2
time step continuity errors : sum local = 0.0241554, global = 0.00330076, cumulative = -0.555532
ExecutionTime = 4.43 s  ClockTime = 4 s

Time = 64

smoothSolver:  Solving for Ux, Initial residual = 0.00697751, Final residual = 3.19223e-06, No Iterations 2
smoothSolver:  Solving for Uy, Initial residual = 0.0074311, Final residual = 3.38132e-06, No Iterations 2
smoothSolver:  Solving for Uz, Initial residual = 0.00713072, Final residual = 3.04457e-06, No Iterations 2
GAMG:  Solving for p, Initial residual = 0.0610338, Final residual = 0.00397226, No Iterations 1
GAMG:  Solving for p, Initial residual = 0.0163573, Final residual = 0.00157659, No Iterations 1
GAMG:  Solving for p, Initial residual = 0.00660696, Final residual = 0.000298612, No Iterations 2
GAMG:  Solving for p, Initial residual = 0.00404462, Final residual = 0.000360761, No Iterations 1
GAMG:  Solving for p, Initial residual = 0.00196596, Final residual = 0.000104386, No Iterations 2
time step continuity errors : sum local = 0.023531, global = 0.00307252, cumulative = -0.55246
ExecutionTime = 4.49 s  ClockTime = 4 s

Time = 65

smoothSolver:  Solving for Ux, Initial residual = 0.00689877, Final residual = 3.14553e-06, No Iterations 2
smoothSolver:  Solving for Uy, Initial residual = 0.00734604, Final residual = 3.32539e-06, No Iterations 2
smoothSolver:  Solving for Uz, Initial residual = 0.00702879, Final residual = 2.99405e-06, No Iterations 2
GAMG:  Solving for p, Initial residual = 0.0607157, Final residual = 0.00395456, No Iterations 1
GAMG:  Solving for p, Initial residual = 0.0163436, Final residual = 0.00157124, No Iterations 1
GAMG:  Solving for p, Initial residual = 0.00659387, Final residual = 0.000295624, No Iterations 2
GAMG:  Solving for p, Initial residual = 0.00393559, Final residual = 0.000356011, No Iterations 1
GAMG:  Solving for p, Initial residual = 0.00194481, Final residual = 9.88583e-05, No Iterations 2
time step continuity errors : sum local = 0.02248, global = 0.000256979, cumulative = -0.552203
ExecutionTime = 4.56 s  ClockTime = 4 s

Time = 66

smoothSolver:  Solving for Ux, Initial residual = 0.0068236, Final residual = 3.13008e-06, No Iterations 2
smoothSolver:  Solving for Uy, Initial residual = 0.00726564, Final residual = 3.28519e-06, No Iterations 2
smoothSolver:  Solving for Uz, Initial residual = 0.00693027, Final residual = 2.97043e-06, No Iterations 2
GAMG:  Solving for p, Initial residual = 0.060309, Final residual = 0.00390517, No Iterations 1
GAMG:  Solving for p, Initial residual = 0.0162306, Final residual = 0.00155466, No Iterations 1
GAMG:  Solving for p, Initial residual = 0.0065632, Final residual = 0.00028307, No Iterations 2
GAMG:  Solving for p, Initial residual = 0.00390624, Final residual = 0.000343953, No Iterations 1
GAMG:  Solving for p, Initial residual = 0.00194408, Final residual = 9.38048e-05, No Iterations 2
time step continuity errors : sum local = 0.0215946, global = -0.00610196, cumulative = -0.558305
ExecutionTime = 4.63 s  ClockTime = 4 s

Time = 67

smoothSolver:  Solving for Ux, Initial residual = 0.00676317, Final residual = 3.07798e-06, No Iterations 2
smoothSolver:  Solving for Uy, Initial residual = 0.00719138, Final residual = 3.23703e-06, No Iterations 2
smoothSolver:  Solving for Uz, Initial residual = 0.00683928, Final residual = 2.91034e-06, No Iterations 2
GAMG:  Solving for p, Initial residual = 0.0593781, Final residual = 0.00380605, No Iterations 1
GAMG:  Solving for p, Initial residual = 0.0159886, Final residual = 0.00151205, No Iterations 1
GAMG:  Solving for p, Initial residual = 0.00648305, Final residual = 0.000271156, No Iterations 2
GAMG:  Solving for p, Initial residual = 0.00391357, Final residual = 0.000332863, No Iterations 1
GAMG:  Solving for p, Initial residual = 0.00193904, Final residual = 9.80029e-05, No Iterations 2
time step continuity errors : sum local = 0.0230151, global = -0.00644255, cumulative = -0.564747
ExecutionTime = 4.69 s  ClockTime = 4 s

Time = 68

smoothSolver:  Solving for Ux, Initial residual = 0.00670776, Final residual = 3.07869e-06, No Iterations 2
smoothSolver:  Solving for Uy, Initial residual = 0.00712197, Final residual = 3.21736e-06, No Iterations 2
smoothSolver:  Solving for Uz, Initial residual = 0.006756, Final residual = 2.87789e-06, No Iterations 2
GAMG:  Solving for p, Initial residual = 0.0583947, Final residual = 0.00371842, No Iterations 1
GAMG:  Solving for p, Initial residual = 0.0158251, Final residual = 0.00148451, No Iterations 1
GAMG:  Solving for p, Initial residual = 0.00641733, Final residual = 0.000279309, No Iterations 2
GAMG:  Solving for p, Initial residual = 0.00398501, Final residual = 0.000336171, No Iterations 1
GAMG:  Solving for p, Initial residual = 0.0019635, Final residual = 0.000110663, No Iterations 2
time step continuity errors : sum local = 0.0263832, global = -0.00545038, cumulative = -0.570198
ExecutionTime = 4.76 s  ClockTime = 4 s

Time = 69

smoothSolver:  Solving for Ux, Initial residual = 0.00664711, Final residual = 3.03812e-06, No Iterations 2
smoothSolver:  Solving for Uy, Initial residual = 0.0070586, Final residual = 3.19376e-06, No Iterations 2
smoothSolver:  Solving for Uz, Initial residual = 0.00667861, Final residual = 2.82067e-06, No Iterations 2
GAMG:  Solving for p, Initial residual = 0.057202, Final residual = 0.00362341, No Iterations 1
GAMG:  Solving for p, Initial residual = 0.0155813, Final residual = 0.00144984, No Iterations 1
GAMG:  Solving for p, Initial residual = 0.00631618, Final residual = 0.000285032, No Iterations 2
GAMG:  Solving for p, Initial residual = 0.00398675, Final residual = 0.000337565, No Iterations 1
GAMG:  Solving for p, Initial residual = 0.00197081, Final residual = 0.000117569, No Iterations 2
time step continuity errors : sum local = 0.0285555, global = -0.00529196, cumulative = -0.57549
ExecutionTime = 4.82 s  ClockTime = 4 s

Time = 70

smoothSolver:  Solving for Ux, Initial residual = 0.00657714, Final residual = 3.03532e-06, No Iterations 2
smoothSolver:  Solving for Uy, Initial residual = 0.00699281, Final residual = 3.1781e-06, No Iterations 2
smoothSolver:  Solving for Uz, Initial residual = 0.00660192, Final residual = 2.79079e-06, No Iterations 2
GAMG:  Solving for p, Initial residual = 0.0560254, Final residual = 0.0035348, No Iterations 1
GAMG:  Solving for p, Initial residual = 0.0152953, Final residual = 0.00140329, No Iterations 1
GAMG:  Solving for p, Initial residual = 0.00620267, Final residual = 0.000279251, No Iterations 2
GAMG:  Solving for p, Initial residual = 0.00391381, Final residual = 0.000331972, No Iterations 1
GAMG:  Solving for p, Initial residual = 0.00193738, Final residual = 0.000117789, No Iterations 2
time step continuity errors : sum local = 0.0290906, global = -0.00518915, cumulative = -0.580679
ExecutionTime = 4.88 s  ClockTime = 4 s

Time = 71

smoothSolver:  Solving for Ux, Initial residual = 0.00651404, Final residual = 2.99691e-06, No Iterations 2
smoothSolver:  Solving for Uy, Initial residual = 0.00692314, Final residual = 3.14529e-06, No Iterations 2
smoothSolver:  Solving for Uz, Initial residual = 0.00652171, Final residual = 2.7466e-06, No Iterations 2
GAMG:  Solving for p, Initial residual = 0.054647, Final residual = 0.00344114, No Iterations 1
GAMG:  Solving for p, Initial residual = 0.0149607, Final residual = 0.00135894, No Iterations 1
GAMG:  Solving for p, Initial residual = 0.00609973, Final residual = 0.000265354, No Iterations 2
GAMG:  Solving for p, Initial residual = 0.0037816, Final residual = 0.000322466, No Iterations 1
GAMG:  Solving for p, Initial residual = 0.0018846, Final residual = 0.000112705, No Iterations 2
time step continuity errors : sum local = 0.0282984, global = -0.00537118, cumulative = -0.58605
ExecutionTime = 4.95 s  ClockTime = 5 s

Time = 72

smoothSolver:  Solving for Ux, Initial residual = 0.00645417, Final residual = 2.99568e-06, No Iterations 2
smoothSolver:  Solving for Uy, Initial residual = 0.0068503, Final residual = 3.1455e-06, No Iterations 2
smoothSolver:  Solving for Uz, Initial residual = 0.00644006, Final residual = 2.73687e-06, No Iterations 2
GAMG:  Solving for p, Initial residual = 0.0534508, Final residual = 0.0033652, No Iterations 1
GAMG:  Solving for p, Initial residual = 0.0146151, Final residual = 0.00132086, No Iterations 1
GAMG:  Solving for p, Initial residual = 0.00598848, Final residual = 0.000251033, No Iterations 2
GAMG:  Solving for p, Initial residual = 0.00364322, Final residual = 0.00030986, No Iterations 1
GAMG:  Solving for p, Initial residual = 0.00182861, Final residual = 0.000104182, No Iterations 2
time step continuity errors : sum local = 0.0265421, global = -0.00541843, cumulative = -0.591468
ExecutionTime = 5.02 s  ClockTime = 5 s

Time = 73

smoothSolver:  Solving for Ux, Initial residual = 0.00639396, Final residual = 2.95367e-06, No Iterations 2
smoothSolver:  Solving for Uy, Initial residual = 0.00677815, Final residual = 3.13749e-06, No Iterations 2
smoothSolver:  Solving for Uz, Initial residual = 0.00635687, Final residual = 2.70628e-06, No Iterations 2
GAMG:  Solving for p, Initial residual = 0.0524399, Final residual = 0.00329839, No Iterations 1
GAMG:  Solving for p, Initial residual = 0.014349, Final residual = 0.0012934, No Iterations 1
GAMG:  Solving for p, Initial residual = 0.00589961, Final residual = 0.000241005, No Iterations 2
GAMG:  Solving for p, Initial residual = 0.00353123, Final residual = 0.000297606, No Iterations 1
GAMG:  Solving for p, Initial residual = 0.00178908, Final residual = 9.46858e-05, No Iterations 2
time step continuity errors : sum local = 0.0243179, global = -0.0056978, cumulative = -0.597166
ExecutionTime = 5.09 s  ClockTime = 5 s

Time = 74

smoothSolver:  Solving for Ux, Initial residual = 0.0063426, Final residual = 2.94465e-06, No Iterations 2
smoothSolver:  Solving for Uy, Initial residual = 0.00670098, Final residual = 3.1155e-06, No Iterations 2
smoothSolver:  Solving for Uz, Initial residual = 0.00627943, Final residual = 2.68542e-06, No Iterations 2
GAMG:  Solving for p, Initial residual = 0.0516021, Final residual = 0.00325865, No Iterations 1
GAMG:  Solving for p, Initial residual = 0.0140812, Final residual = 0.00126084, No Iterations 1
GAMG:  Solving for p, Initial residual = 0.00578388, Final residual = 0.000231411, No Iterations 2
GAMG:  Solving for p, Initial residual = 0.0034107, Final residual = 0.00028444, No Iterations 1
GAMG:  Solving for p, Initial residual = 0.00173867, Final residual = 8.58886e-05, No Iterations 2
time step continuity errors : sum local = 0.0221952, global = -0.00609374, cumulative = -0.60326
ExecutionTime = 5.15 s  ClockTime = 5 s

Time = 75

smoothSolver:  Solving for Ux, Initial residual = 0.00629093, Final residual = 2.89766e-06, No Iterations 2
smoothSolver:  Solving for Uy, Initial residual = 0.00662184, Final residual = 3.09426e-06, No Iterations 2
smoothSolver:  Solving for Uz, Initial residual = 0.00619672, Final residual = 2.65874e-06, No Iterations 2
GAMG:  Solving for p, Initial residual = 0.0505874, Final residual = 0.0032041, No Iterations 1
GAMG:  Solving for p, Initial residual = 0.0138514, Final residual = 0.00122269, No Iterations 1
GAMG:  Solving for p, Initial residual = 0.00567035, Final residual = 0.000220906, No Iterations 2
GAMG:  Solving for p, Initial residual = 0.00328648, Final residual = 0.000271548, No Iterations 1
GAMG:  Solving for p, Initial residual = 0.00168632, Final residual = 7.72148e-05, No Iterations 2
time step continuity errors : sum local = 0.0201044, global = -0.006519, cumulative = -0.609779
ExecutionTime = 5.22 s  ClockTime = 5 s

Time = 76

smoothSolver:  Solving for Ux, Initial residual = 0.00624767, Final residual = 2.88964e-06, No Iterations 2
smoothSolver:  Solving for Uy, Initial residual = 0.00654639, Final residual = 3.07618e-06, No Iterations 2
smoothSolver:  Solving for Uz, Initial residual = 0.00611648, Final residual = 2.62788e-06, No Iterations 2
GAMG:  Solving for p, Initial residual = 0.0498744, Final residual = 0.0031804, No Iterations 1
GAMG:  Solving for p, Initial residual = 0.0137667, Final residual = 0.0012018, No Iterations 1
GAMG:  Solving for p, Initial residual = 0.00559319, Final residual = 0.000212195, No Iterations 2
GAMG:  Solving for p, Initial residual = 0.00320405, Final residual = 0.000262171, No Iterations 1
GAMG:  Solving for p, Initial residual = 0.00164712, Final residual = 7.18208e-05, No Iterations 2
time step continuity errors : sum local = 0.0187197, global = -0.00652049, cumulative = -0.616299
ExecutionTime = 5.29 s  ClockTime = 5 s

Time = 77

smoothSolver:  Solving for Ux, Initial residual = 0.0062056, Final residual = 2.86629e-06, No Iterations 2
smoothSolver:  Solving for Uy, Initial residual = 0.00647119, Final residual = 3.04114e-06, No Iterations 2
smoothSolver:  Solving for Uz, Initial residual = 0.0060354, Final residual = 2.59008e-06, No Iterations 2
GAMG:  Solving for p, Initial residual = 0.0493576, Final residual = 0.00313279, No Iterations 1
GAMG:  Solving for p, Initial residual = 0.0137555, Final residual = 0.00117989, No Iterations 1
GAMG:  Solving for p, Initial residual = 0.00554147, Final residual = 0.000203582, No Iterations 2
GAMG:  Solving for p, Initial residual = 0.00314425, Final residual = 0.000255211, No Iterations 1
GAMG:  Solving for p, Initial residual = 0.00161418, Final residual = 6.86592e-05, No Iterations 2
time step continuity errors : sum local = 0.0179428, global = -0.00626404, cumulative = -0.622563
ExecutionTime = 5.35 s  ClockTime = 5 s

Time = 78

smoothSolver:  Solving for Ux, Initial residual = 0.0061598, Final residual = 2.84996e-06, No Iterations 2
smoothSolver:  Solving for Uy, Initial residual = 0.0063979, Final residual = 3.00109e-06, No Iterations 2
smoothSolver:  Solving for Uz, Initial residual = 0.00595314, Final residual = 2.54609e-06, No Iterations 2
GAMG:  Solving for p, Initial residual = 0.0489267, Final residual = 0.00309984, No Iterations 1
GAMG:  Solving for p, Initial residual = 0.0136975, Final residual = 0.00117493, No Iterations 1
GAMG:  Solving for p, Initial residual = 0.00552927, Final residual = 0.000199284, No Iterations 2
GAMG:  Solving for p, Initial residual = 0.00311543, Final residual = 0.000254132, No Iterations 1
GAMG:  Solving for p, Initial residual = 0.00159996, Final residual = 6.8728e-05, No Iterations 2
time step continuity errors : sum local = 0.0179604, global = -0.00610862, cumulative = -0.628672
ExecutionTime = 5.41 s  ClockTime = 5 s

Time = 79

smoothSolver:  Solving for Ux, Initial residual = 0.00610865, Final residual = 2.81262e-06, No Iterations 2
smoothSolver:  Solving for Uy, Initial residual = 0.00632999, Final residual = 2.96258e-06, No Iterations 2
smoothSolver:  Solving for Uz, Initial residual = 0.00587034, Final residual = 2.51161e-06, No Iterations 2
GAMG:  Solving for p, Initial residual = 0.0486561, Final residual = 0.00305106, No Iterations 1
GAMG:  Solving for p, Initial residual = 0.0136163, Final residual = 0.00116083, No Iterations 1
GAMG:  Solving for p, Initial residual = 0.00552165, Final residual = 0.000195863, No Iterations 2
GAMG:  Solving for p, Initial residual = 0.00310287, Final residual = 0.000256702, No Iterations 1
GAMG:  Solving for p, Initial residual = 0.00160038, Final residual = 7.12947e-05, No Iterations 2
time step continuity errors : sum local = 0.0186178, global = -0.00634536, cumulative = -0.635017
ExecutionTime = 5.49 s  ClockTime = 5 s

Time = 80

smoothSolver:  Solving for Ux, Initial residual = 0.00605863, Final residual = 2.78223e-06, No Iterations 2
smoothSolver:  Solving for Uy, Initial residual = 0.00626153, Final residual = 2.93406e-06, No Iterations 2
smoothSolver:  Solving for Uz, Initial residual = 0.00579083, Final residual = 2.47612e-06, No Iterations 2
GAMG:  Solving for p, Initial residual = 0.0479422, Final residual = 0.00294606, No Iterations 1
GAMG:  Solving for p, Initial residual = 0.013326, Final residual = 0.00112284, No Iterations 1
GAMG:  Solving for p, Initial residual = 0.0053966, Final residual = 0.000186033, No Iterations 2
GAMG:  Solving for p, Initial residual = 0.0030505, Final residual = 0.000249173, No Iterations 1
GAMG:  Solving for p, Initial residual = 0.00157663, Final residual = 6.98159e-05, No Iterations 2
time step continuity errors : sum local = 0.0183666, global = -0.00575039, cumulative = -0.640768
ExecutionTime = 5.55 s  ClockTime = 5 s

Time = 81

smoothSolver:  Solving for Ux, Initial residual = 0.00601524, Final residual = 2.76001e-06, No Iterations 2
smoothSolver:  Solving for Uy, Initial residual = 0.00619587, Final residual = 2.88826e-06, No Iterations 2
smoothSolver:  Solving for Uz, Initial residual = 0.005707, Final residual = 2.43056e-06, No Iterations 2
GAMG:  Solving for p, Initial residual = 0.0474768, Final residual = 0.00292333, No Iterations 1
GAMG:  Solving for p, Initial residual = 0.0131227, Final residual = 0.00111081, No Iterations 1
GAMG:  Solving for p, Initial residual = 0.00531127, Final residual = 0.00018439, No Iterations 2
GAMG:  Solving for p, Initial residual = 0.00302345, Final residual = 0.00024385, No Iterations 1
GAMG:  Solving for p, Initial residual = 0.00155927, Final residual = 6.90064e-05, No Iterations 2
time step continuity errors : sum local = 0.0182493, global = -0.00476196, cumulative = -0.64553
ExecutionTime = 5.62 s  ClockTime = 5 s

Time = 82

smoothSolver:  Solving for Ux, Initial residual = 0.00596612, Final residual = 2.7456e-06, No Iterations 2
smoothSolver:  Solving for Uy, Initial residual = 0.00613277, Final residual = 2.87018e-06, No Iterations 2
smoothSolver:  Solving for Uz, Initial residual = 0.00562509, Final residual = 2.3924e-06, No Iterations 2
GAMG:  Solving for p, Initial residual = 0.0468052, Final residual = 0.0029111, No Iterations 1
GAMG:  Solving for p, Initial residual = 0.0130306, Final residual = 0.00111422, No Iterations 1
GAMG:  Solving for p, Initial residual = 0.00527873, Final residual = 0.000182116, No Iterations 2
GAMG:  Solving for p, Initial residual = 0.00302402, Final residual = 0.000242895, No Iterations 1
GAMG:  Solving for p, Initial residual = 0.00156839, Final residual = 6.93933e-05, No Iterations 2
[...]
GAMG:  Solving for p, Initial residual = 0.000662194, Final residual = 6.02991e-05, No Iterations 1
GAMG:  Solving for p, Initial residual = 0.000422094, Final residual = 2.1182e-05, No Iterations 2
time step continuity errors : sum local = 8.36433e+07, global = 1.26079e+07, cumulative = 1.47573e+09
ExecutionTime = 133.24 s  ClockTime = 133 s

Time = 1981

smoothSolver:  Solving for Ux, Initial residual = 0.00963465, Final residual = 5.43899e-06, No Iterations 2
smoothSolver:  Solving for Uy, Initial residual = 0.00786949, Final residual = 5.3098e-06, No Iterations 2
smoothSolver:  Solving for Uz, Initial residual = 0.00701744, Final residual = 3.82833e-06, No Iterations 2
GAMG:  Solving for p, Initial residual = 0.00603865, Final residual = 0.000419056, No Iterations 1
GAMG:  Solving for p, Initial residual = 0.00220558, Final residual = 0.000194555, No Iterations 1
GAMG:  Solving for p, Initial residual = 0.00106836, Final residual = 4.4163e-05, No Iterations 2
GAMG:  Solving for p, Initial residual = 0.000699618, Final residual = 6.42629e-05, No Iterations 1
GAMG:  Solving for p, Initial residual = 0.000443623, Final residual = 2.25009e-05, No Iterations 2
time step continuity errors : sum local = 8.66571e+07, global = 1.36676e+07, cumulative = 1.4894e+09
ExecutionTime = 133.31 s  ClockTime = 133 s

Time = 1982

smoothSolver:  Solving for Ux, Initial residual = 0.00981467, Final residual = 5.61802e-06, No Iterations 2
smoothSolver:  Solving for Uy, Initial residual = 0.00787543, Final residual = 5.2584e-06, No Iterations 2
smoothSolver:  Solving for Uz, Initial residual = 0.00700147, Final residual = 3.86379e-06, No Iterations 2
GAMG:  Solving for p, Initial residual = 0.0054947, Final residual = 0.000379132, No Iterations 1
GAMG:  Solving for p, Initial residual = 0.00200641, Final residual = 0.000172763, No Iterations 1
GAMG:  Solving for p, Initial residual = 0.000957818, Final residual = 3.7361e-05, No Iterations 2
GAMG:  Solving for p, Initial residual = 0.000618485, Final residual = 5.44848e-05, No Iterations 1
GAMG:  Solving for p, Initial residual = 0.000394087, Final residual = 1.82882e-05, No Iterations 2
time step continuity errors : sum local = 7.65836e+07, global = 6.72403e+06, cumulative = 1.49612e+09
ExecutionTime = 133.37 s  ClockTime = 133 s

Time = 1983

smoothSolver:  Solving for Ux, Initial residual = 0.00979355, Final residual = 5.83228e-06, No Iterations 2
smoothSolver:  Solving for Uy, Initial residual = 0.00783525, Final residual = 5.18165e-06, No Iterations 2
smoothSolver:  Solving for Uz, Initial residual = 0.00697903, Final residual = 3.80856e-06, No Iterations 2
GAMG:  Solving for p, Initial residual = 0.00552142, Final residual = 0.000376679, No Iterations 1
GAMG:  Solving for p, Initial residual = 0.00207067, Final residual = 0.000179002, No Iterations 1
GAMG:  Solving for p, Initial residual = 0.000996088, Final residual = 4.09311e-05, No Iterations 2
GAMG:  Solving for p, Initial residual = 0.000653687, Final residual = 5.78953e-05, No Iterations 1
GAMG:  Solving for p, Initial residual = 0.000413818, Final residual = 1.9519e-05, No Iterations 2
time step continuity errors : sum local = 8.15302e+07, global = 7.24721e+06, cumulative = 1.50337e+09
ExecutionTime = 133.43 s  ClockTime = 133 s

Time = 1984

smoothSolver:  Solving for Ux, Initial residual = 0.00977501, Final residual = 5.8739e-06, No Iterations 2
smoothSolver:  Solving for Uy, Initial residual = 0.00777671, Final residual = 5.11668e-06, No Iterations 2
smoothSolver:  Solving for Uz, Initial residual = 0.00697776, Final residual = 3.84809e-06, No Iterations 2
GAMG:  Solving for p, Initial residual = 0.00524062, Final residual = 0.000359192, No Iterations 1
GAMG:  Solving for p, Initial residual = 0.00198731, Final residual = 0.000163743, No Iterations 1
GAMG:  Solving for p, Initial residual = 0.000948947, Final residual = 3.73984e-05, No Iterations 2
GAMG:  Solving for p, Initial residual = 0.000619965, Final residual = 5.33367e-05, No Iterations 1
GAMG:  Solving for p, Initial residual = 0.000391963, Final residual = 1.77134e-05, No Iterations 2
time step continuity errors : sum local = 7.73179e+07, global = 791039, cumulative = 1.50416e+09
ExecutionTime = 133.5 s  ClockTime = 133 s

Time = 1985

smoothSolver:  Solving for Ux, Initial residual = 0.00972448, Final residual = 5.91159e-06, No Iterations 2
smoothSolver:  Solving for Uy, Initial residual = 0.00772339, Final residual = 5.11914e-06, No Iterations 2
smoothSolver:  Solving for Uz, Initial residual = 0.00693962, Final residual = 3.87291e-06, No Iterations 2
GAMG:  Solving for p, Initial residual = 0.00546136, Final residual = 0.000369826, No Iterations 1
GAMG:  Solving for p, Initial residual = 0.0021031, Final residual = 0.000177483, No Iterations 1
GAMG:  Solving for p, Initial residual = 0.00103031, Final residual = 4.39879e-05, No Iterations 2
GAMG:  Solving for p, Initial residual = 0.000691981, Final residual = 6.08625e-05, No Iterations 1
GAMG:  Solving for p, Initial residual = 0.000434305, Final residual = 2.01449e-05, No Iterations 2
time step continuity errors : sum local = 8.40664e+07, global = 3.6625e+06, cumulative = 1.50782e+09
ExecutionTime = 133.57 s  ClockTime = 133 s

Time = 1986

smoothSolver:  Solving for Ux, Initial residual = 0.00966814, Final residual = 5.70332e-06, No Iterations 2
smoothSolver:  Solving for Uy, Initial residual = 0.00771936, Final residual = 5.06474e-06, No Iterations 2
smoothSolver:  Solving for Uz, Initial residual = 0.00693987, Final residual = 3.93568e-06, No Iterations 2
GAMG:  Solving for p, Initial residual = 0.00538724, Final residual = 0.000365942, No Iterations 1
GAMG:  Solving for p, Initial residual = 0.0020561, Final residual = 0.000171707, No Iterations 1
GAMG:  Solving for p, Initial residual = 0.00100509, Final residual = 3.99638e-05, No Iterations 2
GAMG:  Solving for p, Initial residual = 0.000654128, Final residual = 5.65687e-05, No Iterations 1
GAMG:  Solving for p, Initial residual = 0.000407552, Final residual = 1.77713e-05, No Iterations 2
time step continuity errors : sum local = 7.45601e+07, global = -3.04829e+06, cumulative = 1.50478e+09
ExecutionTime = 133.63 s  ClockTime = 133 s

Time = 1987

smoothSolver:  Solving for Ux, Initial residual = 0.0096747, Final residual = 5.70762e-06, No Iterations 2
smoothSolver:  Solving for Uy, Initial residual = 0.00769965, Final residual = 4.98081e-06, No Iterations 2
smoothSolver:  Solving for Uz, Initial residual = 0.00691805, Final residual = 3.95792e-06, No Iterations 2
GAMG:  Solving for p, Initial residual = 0.00554604, Final residual = 0.000366304, No Iterations 1
GAMG:  Solving for p, Initial residual = 0.00210282, Final residual = 0.000174366, No Iterations 1
GAMG:  Solving for p, Initial residual = 0.00103635, Final residual = 4.31223e-05, No Iterations 2
GAMG:  Solving for p, Initial residual = 0.000668407, Final residual = 5.93176e-05, No Iterations 1
GAMG:  Solving for p, Initial residual = 0.000422701, Final residual = 1.95954e-05, No Iterations 2
time step continuity errors : sum local = 8.04861e+07, global = 2.28963e+06, cumulative = 1.50706e+09
ExecutionTime = 133.7 s  ClockTime = 133 s

Time = 1988

smoothSolver:  Solving for Ux, Initial residual = 0.00966408, Final residual = 5.61417e-06, No Iterations 2
smoothSolver:  Solving for Uy, Initial residual = 0.00769882, Final residual = 4.87272e-06, No Iterations 2
smoothSolver:  Solving for Uz, Initial residual = 0.00691665, Final residual = 3.94373e-06, No Iterations 2
GAMG:  Solving for p, Initial residual = 0.00618644, Final residual = 0.000410398, No Iterations 1
GAMG:  Solving for p, Initial residual = 0.00231715, Final residual = 0.000190777, No Iterations 1
GAMG:  Solving for p, Initial residual = 0.00113972, Final residual = 4.69379e-05, No Iterations 2
GAMG:  Solving for p, Initial residual = 0.000717041, Final residual = 6.36137e-05, No Iterations 1
GAMG:  Solving for p, Initial residual = 0.000452741, Final residual = 2.08669e-05, No Iterations 2
time step continuity errors : sum local = 7.85007e+07, global = -2.6865e+06, cumulative = 1.50438e+09
ExecutionTime = 133.77 s  ClockTime = 133 s

Time = 1989

smoothSolver:  Solving for Ux, Initial residual = 0.00969439, Final residual = 5.63489e-06, No Iterations 2
smoothSolver:  Solving for Uy, Initial residual = 0.00771969, Final residual = 4.89661e-06, No Iterations 2
smoothSolver:  Solving for Uz, Initial residual = 0.00689317, Final residual = 3.93227e-06, No Iterations 2
GAMG:  Solving for p, Initial residual = 0.00604565, Final residual = 0.000405819, No Iterations 1
GAMG:  Solving for p, Initial residual = 0.00225753, Final residual = 0.000186302, No Iterations 1
GAMG:  Solving for p, Initial residual = 0.00112314, Final residual = 4.77151e-05, No Iterations 2
GAMG:  Solving for p, Initial residual = 0.000704376, Final residual = 6.57702e-05, No Iterations 1
GAMG:  Solving for p, Initial residual = 0.000450477, Final residual = 2.24293e-05, No Iterations 2
time step continuity errors : sum local = 8.90596e+07, global = 3.72981e+06, cumulative = 1.50811e+09
ExecutionTime = 133.83 s  ClockTime = 133 s

Time = 1990

smoothSolver:  Solving for Ux, Initial residual = 0.00967601, Final residual = 5.3336e-06, No Iterations 2
smoothSolver:  Solving for Uy, Initial residual = 0.00774818, Final residual = 4.75733e-06, No Iterations 2
smoothSolver:  Solving for Uz, Initial residual = 0.00688314, Final residual = 3.95245e-06, No Iterations 2
GAMG:  Solving for p, Initial residual = 0.00648085, Final residual = 0.000458132, No Iterations 1
GAMG:  Solving for p, Initial residual = 0.00240095, Final residual = 0.000212795, No Iterations 1
GAMG:  Solving for p, Initial residual = 0.00121343, Final residual = 5.11816e-05, No Iterations 2
GAMG:  Solving for p, Initial residual = 0.000762599, Final residual = 6.98908e-05, No Iterations 1
GAMG:  Solving for p, Initial residual = 0.000485281, Final residual = 2.29595e-05, No Iterations 2
time step continuity errors : sum local = 8.86265e+07, global = 193092, cumulative = 1.5083e+09
ExecutionTime = 133.9 s  ClockTime = 134 s

Time = 1991

smoothSolver:  Solving for Ux, Initial residual = 0.00969737, Final residual = 5.23426e-06, No Iterations 2
smoothSolver:  Solving for Uy, Initial residual = 0.00774393, Final residual = 4.62663e-06, No Iterations 2
smoothSolver:  Solving for Uz, Initial residual = 0.00687603, Final residual = 3.93527e-06, No Iterations 2
GAMG:  Solving for p, Initial residual = 0.00670379, Final residual = 0.000467912, No Iterations 1
GAMG:  Solving for p, Initial residual = 0.00248774, Final residual = 0.000221539, No Iterations 1
GAMG:  Solving for p, Initial residual = 0.00127499, Final residual = 5.27115e-05, No Iterations 2
GAMG:  Solving for p, Initial residual = 0.000792361, Final residual = 7.55574e-05, No Iterations 1
GAMG:  Solving for p, Initial residual = 0.000510442, Final residual = 2.53265e-05, No Iterations 2
time step continuity errors : sum local = 9.54553e+07, global = 6.14095e+06, cumulative = 1.51444e+09
ExecutionTime = 133.97 s  ClockTime = 134 s

Time = 1992

smoothSolver:  Solving for Ux, Initial residual = 0.00963183, Final residual = 5.17819e-06, No Iterations 2
smoothSolver:  Solving for Uy, Initial residual = 0.0077503, Final residual = 4.57386e-06, No Iterations 2
smoothSolver:  Solving for Uz, Initial residual = 0.00687124, Final residual = 3.95915e-06, No Iterations 2
GAMG:  Solving for p, Initial residual = 0.00714396, Final residual = 0.000514636, No Iterations 1
GAMG:  Solving for p, Initial residual = 0.00265186, Final residual = 0.000243034, No Iterations 1
GAMG:  Solving for p, Initial residual = 0.00135937, Final residual = 5.70088e-05, No Iterations 2
GAMG:  Solving for p, Initial residual = 0.00085371, Final residual = 8.07273e-05, No Iterations 1
GAMG:  Solving for p, Initial residual = 0.000547674, Final residual = 2.70377e-05, No Iterations 2
time step continuity errors : sum local = 9.78195e+07, global = 3.11923e+06, cumulative = 1.51756e+09
ExecutionTime = 134.03 s  ClockTime = 134 s

Time = 1993

smoothSolver:  Solving for Ux, Initial residual = 0.00966586, Final residual = 5.2783e-06, No Iterations 2
smoothSolver:  Solving for Uy, Initial residual = 0.00773605, Final residual = 4.64697e-06, No Iterations 2
smoothSolver:  Solving for Uz, Initial residual = 0.00686307, Final residual = 3.96851e-06, No Iterations 2
GAMG:  Solving for p, Initial residual = 0.00706381, Final residual = 0.000496122, No Iterations 1
GAMG:  Solving for p, Initial residual = 0.00267227, Final residual = 0.000233925, No Iterations 1
GAMG:  Solving for p, Initial residual = 0.0013763, Final residual = 5.67165e-05, No Iterations 2
GAMG:  Solving for p, Initial residual = 0.000872715, Final residual = 8.18457e-05, No Iterations 1
GAMG:  Solving for p, Initial residual = 0.000560948, Final residual = 2.87239e-05, No Iterations 2
time step continuity errors : sum local = 1.0733e+08, global = 1.06637e+07, cumulative = 1.52823e+09
ExecutionTime = 134.11 s  ClockTime = 134 s

Time = 1994

smoothSolver:  Solving for Ux, Initial residual = 0.00959692, Final residual = 5.3258e-06, No Iterations 2
smoothSolver:  Solving for Uy, Initial residual = 0.00774826, Final residual = 4.69913e-06, No Iterations 2
smoothSolver:  Solving for Uz, Initial residual = 0.00684351, Final residual = 3.917e-06, No Iterations 2
GAMG:  Solving for p, Initial residual = 0.00692726, Final residual = 0.000484449, No Iterations 1
GAMG:  Solving for p, Initial residual = 0.00259889, Final residual = 0.000229369, No Iterations 1
GAMG:  Solving for p, Initial residual = 0.00133899, Final residual = 5.57471e-05, No Iterations 2
GAMG:  Solving for p, Initial residual = 0.000851572, Final residual = 7.86021e-05, No Iterations 1
GAMG:  Solving for p, Initial residual = 0.000545909, Final residual = 2.74601e-05, No Iterations 2
time step continuity errors : sum local = 1.0448e+08, global = 7.29484e+06, cumulative = 1.53552e+09
ExecutionTime = 134.17 s  ClockTime = 134 s

Time = 1995

smoothSolver:  Solving for Ux, Initial residual = 0.0095416, Final residual = 5.50812e-06, No Iterations 2
smoothSolver:  Solving for Uy, Initial residual = 0.0077283, Final residual = 4.75195e-06, No Iterations 2
smoothSolver:  Solving for Uz, Initial residual = 0.0068299, Final residual = 3.92034e-06, No Iterations 2
GAMG:  Solving for p, Initial residual = 0.00669578, Final residual = 0.000457293, No Iterations 1
GAMG:  Solving for p, Initial residual = 0.00257315, Final residual = 0.000217472, No Iterations 1
GAMG:  Solving for p, Initial residual = 0.00131088, Final residual = 5.36529e-05, No Iterations 2
GAMG:  Solving for p, Initial residual = 0.000836779, Final residual = 7.78888e-05, No Iterations 1
GAMG:  Solving for p, Initial residual = 0.000535549, Final residual = 2.78826e-05, No Iterations 2
time step continuity errors : sum local = 1.09461e+08, global = 1.47267e+07, cumulative = 1.55025e+09
ExecutionTime = 134.23 s  ClockTime = 134 s

Time = 1996

smoothSolver:  Solving for Ux, Initial residual = 0.00947243, Final residual = 5.32259e-06, No Iterations 2
smoothSolver:  Solving for Uy, Initial residual = 0.00768953, Final residual = 4.74426e-06, No Iterations 2
smoothSolver:  Solving for Uz, Initial residual = 0.00682124, Final residual = 3.88327e-06, No Iterations 2
GAMG:  Solving for p, Initial residual = 0.00670214, Final residual = 0.000455283, No Iterations 1
GAMG:  Solving for p, Initial residual = 0.00252683, Final residual = 0.000216233, No Iterations 1
GAMG:  Solving for p, Initial residual = 0.00127437, Final residual = 5.14846e-05, No Iterations 2
GAMG:  Solving for p, Initial residual = 0.000820504, Final residual = 7.41212e-05, No Iterations 1
GAMG:  Solving for p, Initial residual = 0.000521523, Final residual = 2.63953e-05, No Iterations 2
time step continuity errors : sum local = 1.02256e+08, global = 9.89117e+06, cumulative = 1.56014e+09
ExecutionTime = 134.31 s  ClockTime = 134 s

Time = 1997

smoothSolver:  Solving for Ux, Initial residual = 0.00944177, Final residual = 5.39608e-06, No Iterations 2
smoothSolver:  Solving for Uy, Initial residual = 0.0076399, Final residual = 4.7825e-06, No Iterations 2
smoothSolver:  Solving for Uz, Initial residual = 0.00682534, Final residual = 3.8617e-06, No Iterations 2
GAMG:  Solving for p, Initial residual = 0.00670359, Final residual = 0.000443124, No Iterations 1
GAMG:  Solving for p, Initial residual = 0.00259704, Final residual = 0.000210905, No Iterations 1
GAMG:  Solving for p, Initial residual = 0.00128887, Final residual = 5.08545e-05, No Iterations 2
GAMG:  Solving for p, Initial residual = 0.000821781, Final residual = 7.42471e-05, No Iterations 1
GAMG:  Solving for p, Initial residual = 0.000520509, Final residual = 2.6703e-05, No Iterations 2
time step continuity errors : sum local = 1.04378e+08, global = 1.50923e+07, cumulative = 1.57523e+09
ExecutionTime = 134.37 s  ClockTime = 134 s

Time = 1998

smoothSolver:  Solving for Ux, Initial residual = 0.00936196, Final residual = 5.49454e-06, No Iterations 2
smoothSolver:  Solving for Uy, Initial residual = 0.00762548, Final residual = 4.85058e-06, No Iterations 2
smoothSolver:  Solving for Uz, Initial residual = 0.00681907, Final residual = 3.84006e-06, No Iterations 2
GAMG:  Solving for p, Initial residual = 0.00671448, Final residual = 0.000455689, No Iterations 1
GAMG:  Solving for p, Initial residual = 0.00257803, Final residual = 0.000214553, No Iterations 1
GAMG:  Solving for p, Initial residual = 0.0012907, Final residual = 4.97946e-05, No Iterations 2
GAMG:  Solving for p, Initial residual = 0.000825879, Final residual = 7.2572e-05, No Iterations 1
GAMG:  Solving for p, Initial residual = 0.000519594, Final residual = 2.49007e-05, No Iterations 2
time step continuity errors : sum local = 9.63415e+07, global = 7.42257e+06, cumulative = 1.58265e+09
ExecutionTime = 134.43 s  ClockTime = 134 s

Time = 1999

smoothSolver:  Solving for Ux, Initial residual = 0.00932228, Final residual = 5.68976e-06, No Iterations 2
smoothSolver:  Solving for Uy, Initial residual = 0.00759822, Final residual = 4.96637e-06, No Iterations 2
smoothSolver:  Solving for Uz, Initial residual = 0.00683526, Final residual = 3.87461e-06, No Iterations 2
GAMG:  Solving for p, Initial residual = 0.00697095, Final residual = 0.00046632, No Iterations 1
GAMG:  Solving for p, Initial residual = 0.002731, Final residual = 0.000220285, No Iterations 1
GAMG:  Solving for p, Initial residual = 0.00135325, Final residual = 0.000135193, No Iterations 1
GAMG:  Solving for p, Initial residual = 0.000802499, Final residual = 3.5857e-05, No Iterations 2
GAMG:  Solving for p, Initial residual = 0.00059629, Final residual = 5.67591e-05, No Iterations 1
time step continuity errors : sum local = 2.15402e+08, global = 1.68211e+07, cumulative = 1.59947e+09
ExecutionTime = 134.5 s  ClockTime = 134 s

Time = 2000

smoothSolver:  Solving for Ux, Initial residual = 0.00930386, Final residual = 5.44932e-06, No Iterations 2
smoothSolver:  Solving for Uy, Initial residual = 0.00755865, Final residual = 4.98002e-06, No Iterations 2
smoothSolver:  Solving for Uz, Initial residual = 0.00682596, Final residual = 3.88247e-06, No Iterations 2
GAMG:  Solving for p, Initial residual = 0.00703557, Final residual = 0.000484115, No Iterations 1
GAMG:  Solving for p, Initial residual = 0.00271859, Final residual = 0.000225307, No Iterations 1
GAMG:  Solving for p, Initial residual = 0.00135979, Final residual = 4.93456e-05, No Iterations 2
GAMG:  Solving for p, Initial residual = 0.000864806, Final residual = 7.51554e-05, No Iterations 1
GAMG:  Solving for p, Initial residual = 0.000539711, Final residual = 2.32923e-05, No Iterations 2
time step continuity errors : sum local = 8.76631e+07, global = 4.30815e+06, cumulative = 1.60378e+09
ExecutionTime = 134.69 s  ClockTime = 134 s

End

