/*---------------------------------------------------------------------------*\
| =========                 |                                                 |
| \\      /  F ield         | OpenFOAM: The Open Source CFD Toolbox           |
|  \\    /   O peration     | Version:  2506                                  |
|   \\  /    A nd           | Website:  www.openfoam.com                      |
|    \\/     M anipulation  |                                                 |
\*---------------------------------------------------------------------------*/
Build  : _615aae61-20250627 OPENFOAM=2506 version=2506
Arch   : "LSB;label=32;scalar=64"
Exec   : simpleFoam -noFunctionObjects -case /home/ubuntu/fan_CFD_dataset/cases/fan_14
Date   : Nov 07 2025
Time   : 14:51:36
Host   : ip-172-31-37-87
PID    : 171690
I/O    : uncollated
Case   : /home/ubuntu/fan_CFD_dataset/cases/fan_14
nProcs : 1
trapFpe: Floating point exception trapping enabled (FOAM_SIGFPE).
fileModificationChecking : Monitoring run-time modified files using timeStampMaster (fileModificationSkew 5, maxFileModificationPolls 20)
allowSystemOperations : Allowing user-supplied system call operations

// * * * * * * * * * * * * * * * * * * * * * * * * * * * * * * * * * * * * * //
Create time

Create mesh for time = 0


SIMPLE: convergence criteria
    field U	 tolerance 1e-05
    field p	 tolerance 0.0001

Reading field p

Reading field U

Reading/calculating face flux field phi

Selecting incompressible transport model Newtonian
Selecting turbulence model type laminar
Selecting laminar stress model Stokes
No MRF models present

No finite volume options present

Starting time loop

Time = 1

smoothSolver:  Solving for Ux, Initial residual = 1, Final residual = 0.000308446, No Iterations 2
smoothSolver:  Solving for Uy, Initial residual = 1, Final residual = 0.000289661, No Iterations 2
smoothSolver:  Solving for Uz, Initial residual = 1, Final residual = 0.000533333, No Iterations 2
GAMG:  Solving for p, Initial residual = 1, Final residual = 0.0799932, No Iterations 3
GAMG:  Solving for p, Initial residual = 0.106306, Final residual = 0.00732927, No Iterations 1
GAMG:  Solving for p, Initial residual = 0.0352561, Final residual = 0.00331286, No Iterations 1
GAMG:  Solving for p, Initial residual = 0.0208745, Final residual = 0.0019717, No Iterations 1
GAMG:  Solving for p, Initial residual = 0.0131602, Final residual = 0.000543596, No Iterations 2
time step continuity errors : sum local = 9.013, global = -0.76911, cumulative = -0.76911
ExecutionTime = 0.2 s  ClockTime = 0 s

Time = 2

smoothSolver:  Solving for Ux, Initial residual = 0.0544385, Final residual = 2.47605e-05, No Iterations 2
smoothSolver:  Solving for Uy, Initial residual = 0.0537908, Final residual = 2.37984e-05, No Iterations 2
smoothSolver:  Solving for Uz, Initial residual = 0.177542, Final residual = 5.52752e-05, No Iterations 2
GAMG:  Solving for p, Initial residual = 0.382385, Final residual = 0.0195451, No Iterations 4
GAMG:  Solving for p, Initial residual = 0.0262102, Final residual = 0.00184345, No Iterations 1
GAMG:  Solving for p, Initial residual = 0.0109382, Final residual = 0.000973878, No Iterations 1
GAMG:  Solving for p, Initial residual = 0.00694006, Final residual = 0.000629005, No Iterations 1
GAMG:  Solving for p, Initial residual = 0.00474932, Final residual = 0.000448557, No Iterations 1
time step continuity errors : sum local = 25.1988, global = -5.34966, cumulative = -6.11877
ExecutionTime = 0.26 s  ClockTime = 0 s

Time = 3

smoothSolver:  Solving for Ux, Initial residual = 0.192439, Final residual = 8.65732e-05, No Iterations 2
smoothSolver:  Solving for Uy, Initial residual = 0.194505, Final residual = 8.3626e-05, No Iterations 2
smoothSolver:  Solving for Uz, Initial residual = 0.398778, Final residual = 0.000151631, No Iterations 2
GAMG:  Solving for p, Initial residual = 0.0364893, Final residual = 0.00231189, No Iterations 3
GAMG:  Solving for p, Initial residual = 0.0276295, Final residual = 0.00187415, No Iterations 1
GAMG:  Solving for p, Initial residual = 0.0109231, Final residual = 0.000988892, No Iterations 1
GAMG:  Solving for p, Initial residual = 0.00700414, Final residual = 0.00063918, No Iterations 1
GAMG:  Solving for p, Initial residual = 0.00467969, Final residual = 0.000450788, No Iterations 1
time step continuity errors : sum local = 13.3965, global = -2.61484, cumulative = -8.73361
ExecutionTime = 0.33 s  ClockTime = 0 s

Time = 4

smoothSolver:  Solving for Ux, Initial residual = 0.176625, Final residual = 7.65651e-05, No Iterations 2
smoothSolver:  Solving for Uy, Initial residual = 0.17627, Final residual = 7.52376e-05, No Iterations 2
smoothSolver:  Solving for Uz, Initial residual = 0.425001, Final residual = 0.000166731, No Iterations 2
GAMG:  Solving for p, Initial residual = 0.0160121, Final residual = 0.000791283, No Iterations 2
GAMG:  Solving for p, Initial residual = 0.0108708, Final residual = 0.00074905, No Iterations 1
GAMG:  Solving for p, Initial residual = 0.00527509, Final residual = 0.000506279, No Iterations 1
GAMG:  Solving for p, Initial residual = 0.003975, Final residual = 0.000357484, No Iterations 1
GAMG:  Solving for p, Initial residual = 0.00277937, Final residual = 0.000269601, No Iterations 1
time step continuity errors : sum local = 5.62255, global = -1.02409, cumulative = -9.7577
ExecutionTime = 0.39 s  ClockTime = 0 s

Time = 5

smoothSolver:  Solving for Ux, Initial residual = 0.135343, Final residual = 5.57405e-05, No Iterations 2
smoothSolver:  Solving for Uy, Initial residual = 0.134902, Final residual = 5.53942e-05, No Iterations 2
smoothSolver:  Solving for Uz, Initial residual = 0.374704, Final residual = 0.000144636, No Iterations 2
GAMG:  Solving for p, Initial residual = 0.0157789, Final residual = 0.00100599, No Iterations 2
GAMG:  Solving for p, Initial residual = 0.0246968, Final residual = 0.00171224, No Iterations 1
GAMG:  Solving for p, Initial residual = 0.0121577, Final residual = 0.00116285, No Iterations 1
GAMG:  Solving for p, Initial residual = 0.0103125, Final residual = 0.000901607, No Iterations 1
GAMG:  Solving for p, Initial residual = 0.00741294, Final residual = 0.000692502, No Iterations 1
time step continuity errors : sum local = 4.4317, global = 0.814907, cumulative = -8.94279
ExecutionTime = 0.45 s  ClockTime = 0 s

Time = 6

smoothSolver:  Solving for Ux, Initial residual = 0.0949239, Final residual = 4.15941e-05, No Iterations 2
smoothSolver:  Solving for Uy, Initial residual = 0.0941311, Final residual = 4.10058e-05, No Iterations 2
smoothSolver:  Solving for Uz, Initial residual = 0.284083, Final residual = 0.000109718, No Iterations 2
GAMG:  Solving for p, Initial residual = 0.0208712, Final residual = 0.00139957, No Iterations 3
GAMG:  Solving for p, Initial residual = 0.110908, Final residual = 0.00755201, No Iterations 1
GAMG:  Solving for p, Initial residual = 0.0453688, Final residual = 0.00410342, No Iterations 1
GAMG:  Solving for p, Initial residual = 0.0256901, Final residual = 0.00229908, No Iterations 1
GAMG:  Solving for p, Initial residual = 0.0156415, Final residual = 0.0014764, No Iterations 1
time step continuity errors : sum local = 9.80621, global = 1.81152, cumulative = -7.13127
ExecutionTime = 0.51 s  ClockTime = 0 s

Time = 7

smoothSolver:  Solving for Ux, Initial residual = 0.0603819, Final residual = 2.87968e-05, No Iterations 2
smoothSolver:  Solving for Uy, Initial residual = 0.0590184, Final residual = 2.77475e-05, No Iterations 2
smoothSolver:  Solving for Uz, Initial residual = 0.178447, Final residual = 7.29611e-05, No Iterations 2
GAMG:  Solving for p, Initial residual = 0.0313916, Final residual = 0.00238227, No Iterations 3
GAMG:  Solving for p, Initial residual = 0.0630374, Final residual = 0.00428058, No Iterations 1
GAMG:  Solving for p, Initial residual = 0.0256801, Final residual = 0.00233137, No Iterations 1
GAMG:  Solving for p, Initial residual = 0.0159198, Final residual = 0.00142046, No Iterations 1
GAMG:  Solving for p, Initial residual = 0.0102833, Final residual = 0.000968489, No Iterations 1
time step continuity errors : sum local = 13.0443, global = 2.48515, cumulative = -4.64612
ExecutionTime = 0.57 s  ClockTime = 0 s

Time = 8

smoothSolver:  Solving for Ux, Initial residual = 0.0372942, Final residual = 1.99881e-05, No Iterations 2
smoothSolver:  Solving for Uy, Initial residual = 0.0354872, Final residual = 1.87851e-05, No Iterations 2
smoothSolver:  Solving for Uz, Initial residual = 0.0873874, Final residual = 4.2325e-05, No Iterations 2
GAMG:  Solving for p, Initial residual = 0.0643425, Final residual = 0.00444003, No Iterations 3
GAMG:  Solving for p, Initial residual = 0.0492585, Final residual = 0.0033274, No Iterations 1
GAMG:  Solving for p, Initial residual = 0.0201133, Final residual = 0.00182756, No Iterations 1
GAMG:  Solving for p, Initial residual = 0.0128482, Final residual = 0.00115046, No Iterations 1
GAMG:  Solving for p, Initial residual = 0.00848017, Final residual = 0.000803922, No Iterations 1
time step continuity errors : sum local = 13.0697, global = 2.63004, cumulative = -2.01608
ExecutionTime = 0.63 s  ClockTime = 0 s

Time = 9

smoothSolver:  Solving for Ux, Initial residual = 0.0318682, Final residual = 1.87533e-05, No Iterations 2
smoothSolver:  Solving for Uy, Initial residual = 0.0306003, Final residual = 1.76382e-05, No Iterations 2
smoothSolver:  Solving for Uz, Initial residual = 0.0579232, Final residual = 3.13047e-05, No Iterations 2
GAMG:  Solving for p, Initial residual = 0.20525, Final residual = 0.0168171, No Iterations 2
GAMG:  Solving for p, Initial residual = 0.0399287, Final residual = 0.00273856, No Iterations 1
GAMG:  Solving for p, Initial residual = 0.0180359, Final residual = 0.00169545, No Iterations 1
GAMG:  Solving for p, Initial residual = 0.012257, Final residual = 0.00108611, No Iterations 1
GAMG:  Solving for p, Initial residual = 0.00809801, Final residual = 0.000766604, No Iterations 1
time step continuity errors : sum local = 11.4356, global = 2.37479, cumulative = 0.358713
ExecutionTime = 0.69 s  ClockTime = 1 s

Time = 10

smoothSolver:  Solving for Ux, Initial residual = 0.0392744, Final residual = 2.13419e-05, No Iterations 2
smoothSolver:  Solving for Uy, Initial residual = 0.0392588, Final residual = 2.09501e-05, No Iterations 2
smoothSolver:  Solving for Uz, Initial residual = 0.0952597, Final residual = 4.31167e-05, No Iterations 2
GAMG:  Solving for p, Initial residual = 0.068523, Final residual = 0.00346925, No Iterations 2
GAMG:  Solving for p, Initial residual = 0.0298713, Final residual = 0.00204006, No Iterations 1
GAMG:  Solving for p, Initial residual = 0.0140144, Final residual = 0.0013286, No Iterations 1
GAMG:  Solving for p, Initial residual = 0.00994335, Final residual = 0.000888295, No Iterations 1
GAMG:  Solving for p, Initial residual = 0.00673086, Final residual = 0.000648425, No Iterations 1
time step continuity errors : sum local = 7.57571, global = 1.5543, cumulative = 1.91302
ExecutionTime = 0.75 s  ClockTime = 1 s

Time = 11

smoothSolver:  Solving for Ux, Initial residual = 0.0486063, Final residual = 2.49044e-05, No Iterations 2
smoothSolver:  Solving for Uy, Initial residual = 0.049202, Final residual = 2.44725e-05, No Iterations 2
smoothSolver:  Solving for Uz, Initial residual = 0.13799, Final residual = 5.81785e-05, No Iterations 2
GAMG:  Solving for p, Initial residual = 0.0489041, Final residual = 0.0044313, No Iterations 1
GAMG:  Solving for p, Initial residual = 0.0212507, Final residual = 0.00212188, No Iterations 1
GAMG:  Solving for p, Initial residual = 0.0127696, Final residual = 0.00126149, No Iterations 1
GAMG:  Solving for p, Initial residual = 0.00854256, Final residual = 0.000354558, No Iterations 2
GAMG:  Solving for p, Initial residual = 0.00712608, Final residual = 0.000526121, No Iterations 1
time step continuity errors : sum local = 3.62077, global = 0.916491, cumulative = 2.82951
ExecutionTime = 0.81 s  ClockTime = 1 s

Time = 12

smoothSolver:  Solving for Ux, Initial residual = 0.052292, Final residual = 2.62953e-05, No Iterations 2
smoothSolver:  Solving for Uy, Initial residual = 0.0527827, Final residual = 2.60966e-05, No Iterations 2
smoothSolver:  Solving for Uz, Initial residual = 0.156336, Final residual = 6.39288e-05, No Iterations 2
GAMG:  Solving for p, Initial residual = 0.0446255, Final residual = 0.00426333, No Iterations 1
GAMG:  Solving for p, Initial residual = 0.0331697, Final residual = 0.00319675, No Iterations 1
GAMG:  Solving for p, Initial residual = 0.0239105, Final residual = 0.00107364, No Iterations 2
GAMG:  Solving for p, Initial residual = 0.0309256, Final residual = 0.00193125, No Iterations 1
GAMG:  Solving for p, Initial residual = 0.016151, Final residual = 0.00140197, No Iterations 1
time step continuity errors : sum local = 2.93414, global = -0.602559, cumulative = 2.22695
ExecutionTime = 0.87 s  ClockTime = 1 s

Time = 13

smoothSolver:  Solving for Ux, Initial residual = 0.0491218, Final residual = 2.54023e-05, No Iterations 2
smoothSolver:  Solving for Uy, Initial residual = 0.0490506, Final residual = 2.52186e-05, No Iterations 2
smoothSolver:  Solving for Uz, Initial residual = 0.143767, Final residual = 5.89359e-05, No Iterations 2
GAMG:  Solving for p, Initial residual = 0.0475685, Final residual = 0.00286104, No Iterations 2
GAMG:  Solving for p, Initial residual = 0.12221, Final residual = 0.00823078, No Iterations 1
GAMG:  Solving for p, Initial residual = 0.0469542, Final residual = 0.0044166, No Iterations 1
GAMG:  Solving for p, Initial residual = 0.0262186, Final residual = 0.00226583, No Iterations 1
GAMG:  Solving for p, Initial residual = 0.015303, Final residual = 0.00142262, No Iterations 1
time step continuity errors : sum local = 4.94621, global = -0.973461, cumulative = 1.25349
ExecutionTime = 0.93 s  ClockTime = 1 s

Time = 14

smoothSolver:  Solving for Ux, Initial residual = 0.0408131, Final residual = 2.2386e-05, No Iterations 2
smoothSolver:  Solving for Uy, Initial residual = 0.0400627, Final residual = 2.16935e-05, No Iterations 2
smoothSolver:  Solving for Uz, Initial residual = 0.103111, Final residual = 4.59401e-05, No Iterations 2
GAMG:  Solving for p, Initial residual = 0.0610177, Final residual = 0.0045476, No Iterations 2
GAMG:  Solving for p, Initial residual = 0.0664739, Final residual = 0.00454378, No Iterations 1
GAMG:  Solving for p, Initial residual = 0.0279626, Final residual = 0.00265489, No Iterations 1
GAMG:  Solving for p, Initial residual = 0.0177461, Final residual = 0.0015504, No Iterations 1
GAMG:  Solving for p, Initial residual = 0.0109971, Final residual = 0.00102895, No Iterations 1
time step continuity errors : sum local = 6.32888, global = -1.28843, cumulative = -0.0349406
ExecutionTime = 0.99 s  ClockTime = 1 s

Time = 15

smoothSolver:  Solving for Ux, Initial residual = 0.0333244, Final residual = 1.91038e-05, No Iterations 2
smoothSolver:  Solving for Uy, Initial residual = 0.0323245, Final residual = 1.8459e-05, No Iterations 2
smoothSolver:  Solving for Uz, Initial residual = 0.0603721, Final residual = 3.23935e-05, No Iterations 2
GAMG:  Solving for p, Initial residual = 0.116743, Final residual = 0.00898696, No Iterations 2
GAMG:  Solving for p, Initial residual = 0.0501205, Final residual = 0.003473, No Iterations 1
GAMG:  Solving for p, Initial residual = 0.0218868, Final residual = 0.00209962, No Iterations 1
GAMG:  Solving for p, Initial residual = 0.0146073, Final residual = 0.00129398, No Iterations 1
GAMG:  Solving for p, Initial residual = 0.00936002, Final residual = 0.000885698, No Iterations 1
time step continuity errors : sum local = 6.3781, global = -1.33215, cumulative = -1.36709
ExecutionTime = 1.05 s  ClockTime = 1 s

Time = 16

smoothSolver:  Solving for Ux, Initial residual = 0.0299882, Final residual = 1.7483e-05, No Iterations 2
smoothSolver:  Solving for Uy, Initial residual = 0.0296316, Final residual = 1.68655e-05, No Iterations 2
smoothSolver:  Solving for Uz, Initial residual = 0.0502406, Final residual = 2.79377e-05, No Iterations 2
GAMG:  Solving for p, Initial residual = 0.162893, Final residual = 0.0104756, No Iterations 2
GAMG:  Solving for p, Initial residual = 0.0393805, Final residual = 0.00276914, No Iterations 1
GAMG:  Solving for p, Initial residual = 0.0176627, Final residual = 0.0017264, No Iterations 1
GAMG:  Solving for p, Initial residual = 0.0123013, Final residual = 0.00111097, No Iterations 1
GAMG:  Solving for p, Initial residual = 0.00809592, Final residual = 0.000780988, No Iterations 1
time step continuity errors : sum local = 5.35046, global = -1.13082, cumulative = -2.49791
ExecutionTime = 1.1 s  ClockTime = 1 s

Time = 17

smoothSolver:  Solving for Ux, Initial residual = 0.0294163, Final residual = 1.65946e-05, No Iterations 2
smoothSolver:  Solving for Uy, Initial residual = 0.0297333, Final residual = 1.61204e-05, No Iterations 2
smoothSolver:  Solving for Uz, Initial residual = 0.0678769, Final residual = 3.15352e-05, No Iterations 2
GAMG:  Solving for p, Initial residual = 0.0704209, Final residual = 0.00366275, No Iterations 2
GAMG:  Solving for p, Initial residual = 0.0310797, Final residual = 0.00222851, No Iterations 1
GAMG:  Solving for p, Initial residual = 0.0146578, Final residual = 0.00061009, No Iterations 2
GAMG:  Solving for p, Initial residual = 0.0121665, Final residual = 0.00085135, No Iterations 1
GAMG:  Solving for p, Initial residual = 0.0065495, Final residual = 0.000633718, No Iterations 1
time step continuity errors : sum local = 3.49442, global = -0.717263, cumulative = -3.21517
ExecutionTime = 1.17 s  ClockTime = 1 s

Time = 18

smoothSolver:  Solving for Ux, Initial residual = 0.0287191, Final residual = 1.54273e-05, No Iterations 2
smoothSolver:  Solving for Uy, Initial residual = 0.0291993, Final residual = 1.528e-05, No Iterations 2
smoothSolver:  Solving for Uz, Initial residual = 0.0806308, Final residual = 3.39924e-05, No Iterations 2
GAMG:  Solving for p, Initial residual = 0.0505831, Final residual = 0.00185311, No Iterations 2
GAMG:  Solving for p, Initial residual = 0.0277198, Final residual = 0.00206395, No Iterations 1
GAMG:  Solving for p, Initial residual = 0.0133986, Final residual = 0.00130598, No Iterations 1
GAMG:  Solving for p, Initial residual = 0.00891373, Final residual = 0.000885667, No Iterations 1
GAMG:  Solving for p, Initial residual = 0.00623103, Final residual = 0.000268449, No Iterations 2
time step continuity errors : sum local = 0.892426, global = -0.0566722, cumulative = -3.27184
ExecutionTime = 1.23 s  ClockTime = 1 s

Time = 19

smoothSolver:  Solving for Ux, Initial residual = 0.0266229, Final residual = 1.43292e-05, No Iterations 2
smoothSolver:  Solving for Uy, Initial residual = 0.0267125, Final residual = 1.40705e-05, No Iterations 2
smoothSolver:  Solving for Uz, Initial residual = 0.0780226, Final residual = 3.25042e-05, No Iterations 2
GAMG:  Solving for p, Initial residual = 0.0442838, Final residual = 0.00183657, No Iterations 2
GAMG:  Solving for p, Initial residual = 0.051499, Final residual = 0.00351661, No Iterations 1
GAMG:  Solving for p, Initial residual = 0.0229076, Final residual = 0.00201147, No Iterations 1
GAMG:  Solving for p, Initial residual = 0.0155627, Final residual = 0.00143194, No Iterations 1
GAMG:  Solving for p, Initial residual = 0.0108602, Final residual = 0.00103296, No Iterations 1
time step continuity errors : sum local = 1.4629, global = 0.308377, cumulative = -2.96346
ExecutionTime = 1.28 s  ClockTime = 1 s

Time = 20

smoothSolver:  Solving for Ux, Initial residual = 0.0234934, Final residual = 1.31098e-05, No Iterations 2
smoothSolver:  Solving for Uy, Initial residual = 0.0230098, Final residual = 1.25878e-05, No Iterations 2
smoothSolver:  Solving for Uz, Initial residual = 0.0645088, Final residual = 2.72776e-05, No Iterations 2
GAMG:  Solving for p, Initial residual = 0.0444835, Final residual = 0.00253219, No Iterations 2
GAMG:  Solving for p, Initial residual = 0.158484, Final residual = 0.0107491, No Iterations 1
GAMG:  Solving for p, Initial residual = 0.0579141, Final residual = 0.00535184, No Iterations 1
GAMG:  Solving for p, Initial residual = 0.0301214, Final residual = 0.00262232, No Iterations 1
GAMG:  Solving for p, Initial residual = 0.0172135, Final residual = 0.0015965, No Iterations 1
time step continuity errors : sum local = 2.13916, global = 0.442483, cumulative = -2.52098
ExecutionTime = 1.35 s  ClockTime = 1 s

Time = 21

smoothSolver:  Solving for Ux, Initial residual = 0.0205699, Final residual = 1.16949e-05, No Iterations 2
smoothSolver:  Solving for Uy, Initial residual = 0.0196139, Final residual = 1.09942e-05, No Iterations 2
smoothSolver:  Solving for Uz, Initial residual = 0.0462749, Final residual = 2.08547e-05, No Iterations 2
GAMG:  Solving for p, Initial residual = 0.0515544, Final residual = 0.00350462, No Iterations 2
GAMG:  Solving for p, Initial residual = 0.0740742, Final residual = 0.00507931, No Iterations 1
GAMG:  Solving for p, Initial residual = 0.0300555, Final residual = 0.00287693, No Iterations 1
GAMG:  Solving for p, Initial residual = 0.0187437, Final residual = 0.00164263, No Iterations 1
GAMG:  Solving for p, Initial residual = 0.0114643, Final residual = 0.00107829, No Iterations 1
time step continuity errors : sum local = 2.70352, global = 0.569968, cumulative = -1.95101
ExecutionTime = 1.4 s  ClockTime = 1 s

Time = 22

smoothSolver:  Solving for Ux, Initial residual = 0.0186637, Final residual = 1.06074e-05, No Iterations 2
smoothSolver:  Solving for Uy, Initial residual = 0.0176046, Final residual = 9.91586e-06, No Iterations 2
smoothSolver:  Solving for Uz, Initial residual = 0.0307027, Final residual = 1.5509e-05, No Iterations 2
GAMG:  Solving for p, Initial residual = 0.0759178, Final residual = 0.00519705, No Iterations 2
GAMG:  Solving for p, Initial residual = 0.0538258, Final residual = 0.00374753, No Iterations 1
GAMG:  Solving for p, Initial residual = 0.0228978, Final residual = 0.00223812, No Iterations 1
GAMG:  Solving for p, Initial residual = 0.0152631, Final residual = 0.00135781, No Iterations 1
GAMG:  Solving for p, Initial residual = 0.00964894, Final residual = 0.000922449, No Iterations 1
time step continuity errors : sum local = 2.76346, global = 0.591943, cumulative = -1.35907
ExecutionTime = 1.46 s  ClockTime = 1 s

Time = 23

smoothSolver:  Solving for Ux, Initial residual = 0.0177852, Final residual = 9.94528e-06, No Iterations 2
smoothSolver:  Solving for Uy, Initial residual = 0.0169306, Final residual = 9.40131e-06, No Iterations 2
smoothSolver:  Solving for Uz, Initial residual = 0.0242162, Final residual = 1.33422e-05, No Iterations 2
GAMG:  Solving for p, Initial residual = 0.185884, Final residual = 0.0109538, No Iterations 2
GAMG:  Solving for p, Initial residual = 0.0432905, Final residual = 0.00306225, No Iterations 1
GAMG:  Solving for p, Initial residual = 0.0189886, Final residual = 0.000785006, No Iterations 2
GAMG:  Solving for p, Initial residual = 0.0149849, Final residual = 0.00101596, No Iterations 1
GAMG:  Solving for p, Initial residual = 0.0077082, Final residual = 0.000743478, No Iterations 1
time step continuity errors : sum local = 2.19361, global = 0.453417, cumulative = -0.905651
ExecutionTime = 1.52 s  ClockTime = 1 s

Time = 24

smoothSolver:  Solving for Ux, Initial residual = 0.0175112, Final residual = 9.41306e-06, No Iterations 2
smoothSolver:  Solving for Uy, Initial residual = 0.0169645, Final residual = 9.02528e-06, No Iterations 2
smoothSolver:  Solving for Uz, Initial residual = 0.026499, Final residual = 1.33618e-05, No Iterations 2
GAMG:  Solving for p, Initial residual = 0.105488, Final residual = 0.00521937, No Iterations 2
GAMG:  Solving for p, Initial residual = 0.0384836, Final residual = 0.00281615, No Iterations 1
GAMG:  Solving for p, Initial residual = 0.0174841, Final residual = 0.000747568, No Iterations 2
GAMG:  Solving for p, Initial residual = 0.0140354, Final residual = 0.000987354, No Iterations 1
GAMG:  Solving for p, Initial residual = 0.00743681, Final residual = 0.000730787, No Iterations 1
time step continuity errors : sum local = 1.64316, global = 0.344325, cumulative = -0.561326
ExecutionTime = 1.58 s  ClockTime = 1 s

Time = 25

smoothSolver:  Solving for Ux, Initial residual = 0.0172251, Final residual = 8.99614e-06, No Iterations 2
smoothSolver:  Solving for Uy, Initial residual = 0.0168883, Final residual = 8.73084e-06, No Iterations 2
smoothSolver:  Solving for Uz, Initial residual = 0.0297626, Final residual = 1.39134e-05, No Iterations 2
GAMG:  Solving for p, Initial residual = 0.0734673, Final residual = 0.00291126, No Iterations 2
GAMG:  Solving for p, Initial residual = 0.0405995, Final residual = 0.00308381, No Iterations 1
GAMG:  Solving for p, Initial residual = 0.0187006, Final residual = 0.000713966, No Iterations 2
GAMG:  Solving for p, Initial residual = 0.0137145, Final residual = 0.00102375, No Iterations 1
GAMG:  Solving for p, Initial residual = 0.0077069, Final residual = 0.000769838, No Iterations 1
time step continuity errors : sum local = 1.01826, global = 0.201997, cumulative = -0.359329
ExecutionTime = 1.64 s  ClockTime = 2 s

Time = 26

smoothSolver:  Solving for Ux, Initial residual = 0.0167011, Final residual = 8.57249e-06, No Iterations 2
smoothSolver:  Solving for Uy, Initial residual = 0.0164642, Final residual = 8.33786e-06, No Iterations 2
smoothSolver:  Solving for Uz, Initial residual = 0.0297008, Final residual = 1.33887e-05, No Iterations 2
GAMG:  Solving for p, Initial residual = 0.0668441, Final residual = 0.00262269, No Iterations 2
GAMG:  Solving for p, Initial residual = 0.0762214, Final residual = 0.00533033, No Iterations 1
GAMG:  Solving for p, Initial residual = 0.0345005, Final residual = 0.0031197, No Iterations 1
GAMG:  Solving for p, Initial residual = 0.0235241, Final residual = 0.00223557, No Iterations 1
GAMG:  Solving for p, Initial residual = 0.0167, Final residual = 0.00163252, No Iterations 1
time step continuity errors : sum local = 0.780232, global = -0.125755, cumulative = -0.485083
ExecutionTime = 1.69 s  ClockTime = 2 s

Time = 27

smoothSolver:  Solving for Ux, Initial residual = 0.0159895, Final residual = 8.07039e-06, No Iterations 2
smoothSolver:  Solving for Uy, Initial residual = 0.0158273, Final residual = 7.98569e-06, No Iterations 2
smoothSolver:  Solving for Uz, Initial residual = 0.0267791, Final residual = 1.21792e-05, No Iterations 2
GAMG:  Solving for p, Initial residual = 0.07107, Final residual = 0.00337948, No Iterations 2
GAMG:  Solving for p, Initial residual = 0.0707507, Final residual = 0.0048435, No Iterations 1
GAMG:  Solving for p, Initial residual = 0.0276116, Final residual = 0.00252338, No Iterations 1
GAMG:  Solving for p, Initial residual = 0.0163423, Final residual = 0.00144984, No Iterations 1
GAMG:  Solving for p, Initial residual = 0.0100101, Final residual = 0.000937472, No Iterations 1
time step continuity errors : sum local = 0.946104, global = -0.205411, cumulative = -0.690494
ExecutionTime = 1.76 s  ClockTime = 2 s

Time = 28

smoothSolver:  Solving for Ux, Initial residual = 0.0152179, Final residual = 7.62133e-06, No Iterations 2
smoothSolver:  Solving for Uy, Initial residual = 0.0150974, Final residual = 7.5992e-06, No Iterations 2
smoothSolver:  Solving for Uz, Initial residual = 0.0224443, Final residual = 1.06345e-05, No Iterations 2
GAMG:  Solving for p, Initial residual = 0.0924285, Final residual = 0.00486417, No Iterations 2
GAMG:  Solving for p, Initial residual = 0.0473077, Final residual = 0.00325924, No Iterations 1
GAMG:  Solving for p, Initial residual = 0.0193378, Final residual = 0.00186316, No Iterations 1
GAMG:  Solving for p, Initial residual = 0.0127388, Final residual = 0.00113158, No Iterations 1
GAMG:  Solving for p, Initial residual = 0.00802958, Final residual = 0.000765084, No Iterations 1
time step continuity errors : sum local = 1.17827, global = -0.254498, cumulative = -0.944992
ExecutionTime = 1.81 s  ClockTime = 2 s

Time = 29

smoothSolver:  Solving for Ux, Initial residual = 0.0145656, Final residual = 7.3066e-06, No Iterations 2
smoothSolver:  Solving for Uy, Initial residual = 0.0144834, Final residual = 7.38656e-06, No Iterations 2
smoothSolver:  Solving for Uz, Initial residual = 0.0193626, Final residual = 9.5853e-06, No Iterations 2
GAMG:  Solving for p, Initial residual = 0.171238, Final residual = 0.00883654, No Iterations 2
GAMG:  Solving for p, Initial residual = 0.0382143, Final residual = 0.00266332, No Iterations 1
GAMG:  Solving for p, Initial residual = 0.0161649, Final residual = 0.00161596, No Iterations 1
GAMG:  Solving for p, Initial residual = 0.0112883, Final residual = 0.00101714, No Iterations 1
GAMG:  Solving for p, Initial residual = 0.00726649, Final residual = 0.000706104, No Iterations 1
time step continuity errors : sum local = 1.23903, global = -0.265501, cumulative = -1.21049
ExecutionTime = 1.87 s  ClockTime = 2 s

Time = 30

smoothSolver:  Solving for Ux, Initial residual = 0.0140453, Final residual = 7.14808e-06, No Iterations 2
smoothSolver:  Solving for Uy, Initial residual = 0.0139564, Final residual = 7.20249e-06, No Iterations 2
smoothSolver:  Solving for Uz, Initial residual = 0.0186823, Final residual = 9.21081e-06, No Iterations 2
GAMG:  Solving for p, Initial residual = 0.100276, Final residual = 0.00476103, No Iterations 2
GAMG:  Solving for p, Initial residual = 0.0324205, Final residual = 0.00230534, No Iterations 1
GAMG:  Solving for p, Initial residual = 0.014088, Final residual = 0.000597138, No Iterations 2
GAMG:  Solving for p, Initial residual = 0.0117525, Final residual = 0.00080564, No Iterations 1
GAMG:  Solving for p, Initial residual = 0.00601027, Final residual = 0.000586347, No Iterations 1
time step continuity errors : sum local = 1.02219, global = -0.216235, cumulative = -1.42673
ExecutionTime = 1.94 s  ClockTime = 2 s

Time = 31

smoothSolver:  Solving for Ux, Initial residual = 0.0135845, Final residual = 7.05463e-06, No Iterations 2
smoothSolver:  Solving for Uy, Initial residual = 0.0134243, Final residual = 7.06227e-06, No Iterations 2
smoothSolver:  Solving for Uz, Initial residual = 0.0194163, Final residual = 9.30364e-06, No Iterations 2
GAMG:  Solving for p, Initial residual = 0.0679269, Final residual = 0.00279398, No Iterations 2
GAMG:  Solving for p, Initial residual = 0.028774, Final residual = 0.00211752, No Iterations 1
GAMG:  Solving for p, Initial residual = 0.012917, Final residual = 0.000555092, No Iterations 2
GAMG:  Solving for p, Initial residual = 0.0106975, Final residual = 0.000763636, No Iterations 1
GAMG:  Solving for p, Initial residual = 0.00564012, Final residual = 0.000230012, No Iterations 2
time step continuity errors : sum local = 0.335839, global = -0.0310439, cumulative = -1.45777
ExecutionTime = 2 s  ClockTime = 2 s

Time = 32

smoothSolver:  Solving for Ux, Initial residual = 0.0131357, Final residual = 6.95759e-06, No Iterations 2
smoothSolver:  Solving for Uy, Initial residual = 0.0128883, Final residual = 6.88051e-06, No Iterations 2
smoothSolver:  Solving for Uz, Initial residual = 0.0201443, Final residual = 9.35975e-06, No Iterations 2
GAMG:  Solving for p, Initial residual = 0.0564742, Final residual = 0.00194575, No Iterations 2
GAMG:  Solving for p, Initial residual = 0.0277318, Final residual = 0.0020762, No Iterations 1
GAMG:  Solving for p, Initial residual = 0.0125411, Final residual = 0.000483696, No Iterations 2
GAMG:  Solving for p, Initial residual = 0.00938071, Final residual = 0.000700984, No Iterations 1
GAMG:  Solving for p, Initial residual = 0.0052254, Final residual = 0.000210682, No Iterations 2
time step continuity errors : sum local = 0.226767, global = -0.0210187, cumulative = -1.47879
ExecutionTime = 2.07 s  ClockTime = 2 s

Time = 33

smoothSolver:  Solving for Ux, Initial residual = 0.0126962, Final residual = 6.77625e-06, No Iterations 2
smoothSolver:  Solving for Uy, Initial residual = 0.0123868, Final residual = 6.62732e-06, No Iterations 2
smoothSolver:  Solving for Uz, Initial residual = 0.0198625, Final residual = 9.16047e-06, No Iterations 2
GAMG:  Solving for p, Initial residual = 0.0528095, Final residual = 0.00495545, No Iterations 1
GAMG:  Solving for p, Initial residual = 0.0239905, Final residual = 0.000974055, No Iterations 2
GAMG:  Solving for p, Initial residual = 0.0195244, Final residual = 0.00135555, No Iterations 1
GAMG:  Solving for p, Initial residual = 0.00957026, Final residual = 0.0008902, No Iterations 1
GAMG:  Solving for p, Initial residual = 0.00618615, Final residual = 0.000612952, No Iterations 1
time step continuity errors : sum local = 0.459407, global = 0.037381, cumulative = -1.44141
ExecutionTime = 2.13 s  ClockTime = 2 s

Time = 34

smoothSolver:  Solving for Ux, Initial residual = 0.012326, Final residual = 6.54087e-06, No Iterations 2
smoothSolver:  Solving for Uy, Initial residual = 0.0119774, Final residual = 6.37441e-06, No Iterations 2
smoothSolver:  Solving for Uz, Initial residual = 0.0185721, Final residual = 8.69906e-06, No Iterations 2
GAMG:  Solving for p, Initial residual = 0.0533054, Final residual = 0.00465166, No Iterations 1
GAMG:  Solving for p, Initial residual = 0.0283084, Final residual = 0.00134572, No Iterations 2
GAMG:  Solving for p, Initial residual = 0.0353265, Final residual = 0.00232415, No Iterations 1
GAMG:  Solving for p, Initial residual = 0.0165248, Final residual = 0.00148005, No Iterations 1
GAMG:  Solving for p, Initial residual = 0.0119203, Final residual = 0.00109389, No Iterations 1
time step continuity errors : sum local = 0.477854, global = 0.122045, cumulative = -1.31936
ExecutionTime = 2.18 s  ClockTime = 2 s

Time = 35

smoothSolver:  Solving for Ux, Initial residual = 0.0120356, Final residual = 6.29658e-06, No Iterations 2
smoothSolver:  Solving for Uy, Initial residual = 0.0116429, Final residual = 6.1362e-06, No Iterations 2
smoothSolver:  Solving for Uz, Initial residual = 0.0167858, Final residual = 8.07822e-06, No Iterations 2
GAMG:  Solving for p, Initial residual = 0.0570727, Final residual = 0.00502321, No Iterations 1
GAMG:  Solving for p, Initial residual = 0.035788, Final residual = 0.00176915, No Iterations 2
GAMG:  Solving for p, Initial residual = 0.050587, Final residual = 0.00330895, No Iterations 1
GAMG:  Solving for p, Initial residual = 0.0224512, Final residual = 0.00210764, No Iterations 1
GAMG:  Solving for p, Initial residual = 0.0145965, Final residual = 0.00132225, No Iterations 1
time step continuity errors : sum local = 0.568711, global = 0.166171, cumulative = -1.15319
ExecutionTime = 2.24 s  ClockTime = 2 s

Time = 36

smoothSolver:  Solving for Ux, Initial residual = 0.0117854, Final residual = 6.05959e-06, No Iterations 2
smoothSolver:  Solving for Uy, Initial residual = 0.0114093, Final residual = 5.92618e-06, No Iterations 2
smoothSolver:  Solving for Uz, Initial residual = 0.015128, Final residual = 7.41611e-06, No Iterations 2
GAMG:  Solving for p, Initial residual = 0.0648731, Final residual = 0.00574695, No Iterations 1
GAMG:  Solving for p, Initial residual = 0.0415561, Final residual = 0.00201915, No Iterations 2
GAMG:  Solving for p, Initial residual = 0.040757, Final residual = 0.00272336, No Iterations 1
GAMG:  Solving for p, Initial residual = 0.0186406, Final residual = 0.00180792, No Iterations 1
GAMG:  Solving for p, Initial residual = 0.0127673, Final residual = 0.00117044, No Iterations 1
time step continuity errors : sum local = 0.607424, global = 0.184732, cumulative = -0.968462
ExecutionTime = 2.3 s  ClockTime = 2 s

Time = 37

smoothSolver:  Solving for Ux, Initial residual = 0.0115776, Final residual = 5.85778e-06, No Iterations 2
smoothSolver:  Solving for Uy, Initial residual = 0.0112572, Final residual = 5.79786e-06, No Iterations 2
smoothSolver:  Solving for Uz, Initial residual = 0.0141272, Final residual = 6.94731e-06, No Iterations 2
GAMG:  Solving for p, Initial residual = 0.0763352, Final residual = 0.00674364, No Iterations 1
GAMG:  Solving for p, Initial residual = 0.042127, Final residual = 0.0019374, No Iterations 2
GAMG:  Solving for p, Initial residual = 0.0367721, Final residual = 0.00253945, No Iterations 1
GAMG:  Solving for p, Initial residual = 0.0173857, Final residual = 0.00172439, No Iterations 1
GAMG:  Solving for p, Initial residual = 0.0121386, Final residual = 0.00114149, No Iterations 1
time step continuity errors : sum local = 0.578467, global = 0.177737, cumulative = -0.790724
ExecutionTime = 2.36 s  ClockTime = 2 s

Time = 38

smoothSolver:  Solving for Ux, Initial residual = 0.0113833, Final residual = 5.66248e-06, No Iterations 2
smoothSolver:  Solving for Uy, Initial residual = 0.0111189, Final residual = 5.69862e-06, No Iterations 2
smoothSolver:  Solving for Uz, Initial residual = 0.0137633, Final residual = 6.70055e-06, No Iterations 2
GAMG:  Solving for p, Initial residual = 0.0900567, Final residual = 0.00810395, No Iterations 1
GAMG:  Solving for p, Initial residual = 0.0402832, Final residual = 0.00167971, No Iterations 2
GAMG:  Solving for p, Initial residual = 0.0355853, Final residual = 0.00257514, No Iterations 1
GAMG:  Solving for p, Initial residual = 0.0174626, Final residual = 0.000731437, No Iterations 2
GAMG:  Solving for p, Initial residual = 0.0138505, Final residual = 0.000999785, No Iterations 1
time step continuity errors : sum local = 0.445423, global = 0.141832, cumulative = -0.648892
ExecutionTime = 2.42 s  ClockTime = 2 s

Time = 39

smoothSolver:  Solving for Ux, Initial residual = 0.0111577, Final residual = 5.53636e-06, No Iterations 2
smoothSolver:  Solving for Uy, Initial residual = 0.0109916, Final residual = 5.60601e-06, No Iterations 2
smoothSolver:  Solving for Uz, Initial residual = 0.0136665, Final residual = 6.57155e-06, No Iterations 2
GAMG:  Solving for p, Initial residual = 0.101397, Final residual = 0.00906777, No Iterations 1
GAMG:  Solving for p, Initial residual = 0.0388012, Final residual = 0.00146993, No Iterations 2
GAMG:  Solving for p, Initial residual = 0.0276237, Final residual = 0.00211584, No Iterations 1
GAMG:  Solving for p, Initial residual = 0.0148304, Final residual = 0.000598341, No Iterations 2
GAMG:  Solving for p, Initial residual = 0.0134309, Final residual = 0.00103027, No Iterations 1
time step continuity errors : sum local = 0.341118, global = 0.095779, cumulative = -0.553113
ExecutionTime = 2.49 s  ClockTime = 2 s

Time = 40

smoothSolver:  Solving for Ux, Initial residual = 0.0109096, Final residual = 5.44209e-06, No Iterations 2
smoothSolver:  Solving for Uy, Initial residual = 0.0108242, Final residual = 5.49859e-06, No Iterations 2
smoothSolver:  Solving for Uz, Initial residual = 0.0135563, Final residual = 6.42148e-06, No Iterations 2
GAMG:  Solving for p, Initial residual = 0.103817, Final residual = 0.0087944, No Iterations 1
GAMG:  Solving for p, Initial residual = 0.0363724, Final residual = 0.00131708, No Iterations 2
GAMG:  Solving for p, Initial residual = 0.0202876, Final residual = 0.00150655, No Iterations 1
GAMG:  Solving for p, Initial residual = 0.0101953, Final residual = 0.000375277, No Iterations 2
GAMG:  Solving for p, Initial residual = 0.00738739, Final residual = 0.000570597, No Iterations 1
time step continuity errors : sum local = 0.257847, global = 0.00956285, cumulative = -0.54355
ExecutionTime = 2.55 s  ClockTime = 2 s

Time = 41

smoothSolver:  Solving for Ux, Initial residual = 0.0106845, Final residual = 5.37384e-06, No Iterations 2
smoothSolver:  Solving for Uy, Initial residual = 0.0106452, Final residual = 5.38082e-06, No Iterations 2
smoothSolver:  Solving for Uz, Initial residual = 0.0134248, Final residual = 6.3249e-06, No Iterations 2
GAMG:  Solving for p, Initial residual = 0.0982802, Final residual = 0.00777181, No Iterations 1
GAMG:  Solving for p, Initial residual = 0.0323388, Final residual = 0.00297716, No Iterations 1
GAMG:  Solving for p, Initial residual = 0.0153739, Final residual = 0.000707287, No Iterations 2
GAMG:  Solving for p, Initial residual = 0.010972, Final residual = 0.000738785, No Iterations 1
GAMG:  Solving for p, Initial residual = 0.00541231, Final residual = 0.000501586, No Iterations 1
time step continuity errors : sum local = 0.281365, global = -0.0543562, cumulative = -0.597907
ExecutionTime = 2.6 s  ClockTime = 2 s

Time = 42

smoothSolver:  Solving for Ux, Initial residual = 0.0104796, Final residual = 5.29357e-06, No Iterations 2
smoothSolver:  Solving for Uy, Initial residual = 0.0104642, Final residual = 5.23647e-06, No Iterations 2
smoothSolver:  Solving for Uz, Initial residual = 0.0132476, Final residual = 6.20593e-06, No Iterations 2
GAMG:  Solving for p, Initial residual = 0.0883217, Final residual = 0.00674345, No Iterations 1
GAMG:  Solving for p, Initial residual = 0.0283714, Final residual = 0.00261963, No Iterations 1
GAMG:  Solving for p, Initial residual = 0.0140195, Final residual = 0.00140045, No Iterations 1
GAMG:  Solving for p, Initial residual = 0.00879032, Final residual = 0.000854619, No Iterations 1
GAMG:  Solving for p, Initial residual = 0.00587173, Final residual = 0.000570742, No Iterations 1
time step continuity errors : sum local = 0.362599, global = -0.0871575, cumulative = -0.685064
ExecutionTime = 2.66 s  ClockTime = 3 s

Time = 43

smoothSolver:  Solving for Ux, Initial residual = 0.0102972, Final residual = 5.20973e-06, No Iterations 2
smoothSolver:  Solving for Uy, Initial residual = 0.0102817, Final residual = 5.10993e-06, No Iterations 2
smoothSolver:  Solving for Uz, Initial residual = 0.0130733, Final residual = 6.12963e-06, No Iterations 2
GAMG:  Solving for p, Initial residual = 0.0784734, Final residual = 0.00601547, No Iterations 1
GAMG:  Solving for p, Initial residual = 0.025557, Final residual = 0.00242331, No Iterations 1
GAMG:  Solving for p, Initial residual = 0.0132337, Final residual = 0.000633042, No Iterations 2
GAMG:  Solving for p, Initial residual = 0.0103086, Final residual = 0.000686241, No Iterations 1
GAMG:  Solving for p, Initial residual = 0.00505392, Final residual = 0.000483371, No Iterations 1
time step continuity errors : sum local = 0.33936, global = -0.0762211, cumulative = -0.761285
ExecutionTime = 2.72 s  ClockTime = 3 s

Time = 44

smoothSolver:  Solving for Ux, Initial residual = 0.0101396, Final residual = 5.1434e-06, No Iterations 2
smoothSolver:  Solving for Uy, Initial residual = 0.0100894, Final residual = 4.96572e-06, No Iterations 2
smoothSolver:  Solving for Uz, Initial residual = 0.0129249, Final residual = 6.00635e-06, No Iterations 2
GAMG:  Solving for p, Initial residual = 0.0697674, Final residual = 0.00542765, No Iterations 1
GAMG:  Solving for p, Initial residual = 0.023306, Final residual = 0.00223951, No Iterations 1
GAMG:  Solving for p, Initial residual = 0.0122418, Final residual = 0.000584652, No Iterations 2
GAMG:  Solving for p, Initial residual = 0.00967739, Final residual = 0.000664465, No Iterations 1
GAMG:  Solving for p, Initial residual = 0.00484938, Final residual = 0.000476717, No Iterations 1
time step continuity errors : sum local = 0.341501, global = -0.0773462, cumulative = -0.838631
ExecutionTime = 2.78 s  ClockTime = 3 s

Time = 45

smoothSolver:  Solving for Ux, Initial residual = 0.00998863, Final residual = 5.05035e-06, No Iterations 2
smoothSolver:  Solving for Uy, Initial residual = 0.0098907, Final residual = 4.86784e-06, No Iterations 2
smoothSolver:  Solving for Uz, Initial residual = 0.012778, Final residual = 5.91807e-06, No Iterations 2
GAMG:  Solving for p, Initial residual = 0.0635587, Final residual = 0.00495346, No Iterations 1
GAMG:  Solving for p, Initial residual = 0.0216938, Final residual = 0.00208152, No Iterations 1
GAMG:  Solving for p, Initial residual = 0.0111895, Final residual = 0.000519048, No Iterations 2
GAMG:  Solving for p, Initial residual = 0.00870068, Final residual = 0.000619065, No Iterations 1
GAMG:  Solving for p, Initial residual = 0.00448725, Final residual = 0.000199571, No Iterations 2
time step continuity errors : sum local = 0.139737, global = -0.0123027, cumulative = -0.850934
ExecutionTime = 2.84 s  ClockTime = 3 s

Time = 46

smoothSolver:  Solving for Ux, Initial residual = 0.00985644, Final residual = 4.96793e-06, No Iterations 2
smoothSolver:  Solving for Uy, Initial residual = 0.00971548, Final residual = 4.76994e-06, No Iterations 2
smoothSolver:  Solving for Uz, Initial residual = 0.0126182, Final residual = 5.82822e-06, No Iterations 2
GAMG:  Solving for p, Initial residual = 0.0593479, Final residual = 0.00450209, No Iterations 1
GAMG:  Solving for p, Initial residual = 0.0205206, Final residual = 0.00193237, No Iterations 1
GAMG:  Solving for p, Initial residual = 0.0102222, Final residual = 0.00043422, No Iterations 2
GAMG:  Solving for p, Initial residual = 0.00745956, Final residual = 0.000550415, No Iterations 1
GAMG:  Solving for p, Initial residual = 0.00398841, Final residual = 0.000177382, No Iterations 2
time step continuity errors : sum local = 0.117836, global = -0.0103522, cumulative = -0.861286
ExecutionTime = 2.9 s  ClockTime = 3 s

Time = 47

smoothSolver:  Solving for Ux, Initial residual = 0.00973297, Final residual = 4.88443e-06, No Iterations 2
smoothSolver:  Solving for Uy, Initial residual = 0.00957064, Final residual = 4.7236e-06, No Iterations 2
smoothSolver:  Solving for Uz, Initial residual = 0.0124322, Final residual = 5.75315e-06, No Iterations 2
GAMG:  Solving for p, Initial residual = 0.0570625, Final residual = 0.00413771, No Iterations 1
GAMG:  Solving for p, Initial residual = 0.0198097, Final residual = 0.00176613, No Iterations 1
GAMG:  Solving for p, Initial residual = 0.00953565, Final residual = 0.000353401, No Iterations 2
GAMG:  Solving for p, Initial residual = 0.00641697, Final residual = 0.00047704, No Iterations 1
GAMG:  Solving for p, Initial residual = 0.00352496, Final residual = 0.000136475, No Iterations 2
time step continuity errors : sum local = 0.0855742, global = -0.0067308, cumulative = -0.868017
ExecutionTime = 2.96 s  ClockTime = 3 s

Time = 48

smoothSolver:  Solving for Ux, Initial residual = 0.00962137, Final residual = 4.79719e-06, No Iterations 2
smoothSolver:  Solving for Uy, Initial residual = 0.0094429, Final residual = 4.66172e-06, No Iterations 2
smoothSolver:  Solving for Uz, Initial residual = 0.0122005, Final residual = 5.635e-06, No Iterations 2
GAMG:  Solving for p, Initial residual = 0.0559996, Final residual = 0.00388342, No Iterations 1
GAMG:  Solving for p, Initial residual = 0.0194289, Final residual = 0.0016069, No Iterations 1
GAMG:  Solving for p, Initial residual = 0.00916128, Final residual = 0.00087415, No Iterations 1
GAMG:  Solving for p, Initial residual = 0.00536172, Final residual = 0.000212191, No Iterations 2
GAMG:  Solving for p, Initial residual = 0.00407775, Final residual = 0.000296863, No Iterations 1
time step continuity errors : sum local = 0.175895, global = 0.0205203, cumulative = -0.847497
ExecutionTime = 3.02 s  ClockTime = 3 s

Time = 49

smoothSolver:  Solving for Ux, Initial residual = 0.0095234, Final residual = 4.72868e-06, No Iterations 2
smoothSolver:  Solving for Uy, Initial residual = 0.00932702, Final residual = 4.57504e-06, No Iterations 2
smoothSolver:  Solving for Uz, Initial residual = 0.0119706, Final residual = 5.50519e-06, No Iterations 2
GAMG:  Solving for p, Initial residual = 0.056008, Final residual = 0.00381625, No Iterations 1
GAMG:  Solving for p, Initial residual = 0.0194156, Final residual = 0.0015723, No Iterations 1
GAMG:  Solving for p, Initial residual = 0.00933049, Final residual = 0.000875837, No Iterations 1
GAMG:  Solving for p, Initial residual = 0.00572503, Final residual = 0.000263254, No Iterations 2
GAMG:  Solving for p, Initial residual = 0.00501498, Final residual = 0.000346796, No Iterations 1
time step continuity errors : sum local = 0.191426, global = 0.0465789, cumulative = -0.800918
ExecutionTime = 3.08 s  ClockTime = 3 s

Time = 50

smoothSolver:  Solving for Ux, Initial residual = 0.0094136, Final residual = 4.6595e-06, No Iterations 2
smoothSolver:  Solving for Uy, Initial residual = 0.00922284, Final residual = 4.52934e-06, No Iterations 2
smoothSolver:  Solving for Uz, Initial residual = 0.0117415, Final residual = 5.36471e-06, No Iterations 2
GAMG:  Solving for p, Initial residual = 0.0565996, Final residual = 0.00388589, No Iterations 1
GAMG:  Solving for p, Initial residual = 0.0197008, Final residual = 0.00164135, No Iterations 1
GAMG:  Solving for p, Initial residual = 0.00979055, Final residual = 0.000952343, No Iterations 1
GAMG:  Solving for p, Initial residual = 0.00631842, Final residual = 0.000299113, No Iterations 2
GAMG:  Solving for p, Initial residual = 0.00587767, Final residual = 0.000411619, No Iterations 1
time step continuity errors : sum local = 0.215271, global = 0.0623005, cumulative = -0.738617
ExecutionTime = 3.14 s  ClockTime = 3 s

Time = 51

smoothSolver:  Solving for Ux, Initial residual = 0.00929647, Final residual = 4.61952e-06, No Iterations 2
smoothSolver:  Solving for Uy, Initial residual = 0.00911239, Final residual = 4.4507e-06, No Iterations 2
smoothSolver:  Solving for Uz, Initial residual = 0.0115485, Final residual = 5.25385e-06, No Iterations 2
GAMG:  Solving for p, Initial residual = 0.0575968, Final residual = 0.00400528, No Iterations 1
GAMG:  Solving for p, Initial residual = 0.0200083, Final residual = 0.00172673, No Iterations 1
GAMG:  Solving for p, Initial residual = 0.0101228, Final residual = 0.000431573, No Iterations 2
GAMG:  Solving for p, Initial residual = 0.00851447, Final residual = 0.000597406, No Iterations 1
GAMG:  Solving for p, Initial residual = 0.00454362, Final residual = 0.000451484, No Iterations 1
time step continuity errors : sum local = 0.233104, global = 0.0605407, cumulative = -0.678077
ExecutionTime = 3.2 s  ClockTime = 3 s

Time = 52

smoothSolver:  Solving for Ux, Initial residual = 0.00918667, Final residual = 4.57318e-06, No Iterations 2
smoothSolver:  Solving for Uy, Initial residual = 0.0090247, Final residual = 4.40446e-06, No Iterations 2
smoothSolver:  Solving for Uz, Initial residual = 0.0113774, Final residual = 5.13553e-06, No Iterations 2
GAMG:  Solving for p, Initial residual = 0.0586766, Final residual = 0.00409486, No Iterations 1
GAMG:  Solving for p, Initial residual = 0.0201797, Final residual = 0.00179033, No Iterations 1
GAMG:  Solving for p, Initial residual = 0.0101542, Final residual = 0.000424381, No Iterations 2
GAMG:  Solving for p, Initial residual = 0.00822205, Final residual = 0.000592725, No Iterations 1
GAMG:  Solving for p, Initial residual = 0.00447081, Final residual = 0.000194518, No Iterations 2
time step continuity errors : sum local = 0.100903, global = 0.0122393, cumulative = -0.665837
ExecutionTime = 3.25 s  ClockTime = 3 s

Time = 53

smoothSolver:  Solving for Ux, Initial residual = 0.00908279, Final residual = 4.50912e-06, No Iterations 2
smoothSolver:  Solving for Uy, Initial residual = 0.00893573, Final residual = 4.34049e-06, No Iterations 2
smoothSolver:  Solving for Uz, Initial residual = 0.0112318, Final residual = 5.06882e-06, No Iterations 2
GAMG:  Solving for p, Initial residual = 0.0593675, Final residual = 0.00411305, No Iterations 1
GAMG:  Solving for p, Initial residual = 0.0202294, Final residual = 0.00181025, No Iterations 1
GAMG:  Solving for p, Initial residual = 0.00995312, Final residual = 0.000405057, No Iterations 2
GAMG:  Solving for p, Initial residual = 0.00749875, Final residual = 0.000558303, No Iterations 1
GAMG:  Solving for p, Initial residual = 0.00415813, Final residual = 0.000178397, No Iterations 2
time step continuity errors : sum local = 0.0949073, global = 0.0121443, cumulative = -0.653693
ExecutionTime = 3.32 s  ClockTime = 3 s

Time = 54

smoothSolver:  Solving for Ux, Initial residual = 0.00898526, Final residual = 4.43773e-06, No Iterations 2
smoothSolver:  Solving for Uy, Initial residual = 0.00883809, Final residual = 4.2889e-06, No Iterations 2
smoothSolver:  Solving for Uz, Initial residual = 0.0110873, Final residual = 4.96521e-06, No Iterations 2
GAMG:  Solving for p, Initial residual = 0.0596675, Final residual = 0.00405436, No Iterations 1
GAMG:  Solving for p, Initial residual = 0.0200836, Final residual = 0.00178157, No Iterations 1
GAMG:  Solving for p, Initial residual = 0.00962954, Final residual = 0.000379512, No Iterations 2
GAMG:  Solving for p, Initial residual = 0.00672514, Final residual = 0.00051269, No Iterations 1
GAMG:  Solving for p, Initial residual = 0.00378367, Final residual = 0.000156184, No Iterations 2
time step continuity errors : sum local = 0.0856279, global = 0.0102726, cumulative = -0.643421
ExecutionTime = 3.38 s  ClockTime = 3 s

Time = 55

smoothSolver:  Solving for Ux, Initial residual = 0.00889145, Final residual = 4.38163e-06, No Iterations 2
smoothSolver:  Solving for Uy, Initial residual = 0.00874372, Final residual = 4.24974e-06, No Iterations 2
smoothSolver:  Solving for Uz, Initial residual = 0.0109599, Final residual = 4.88288e-06, No Iterations 2
GAMG:  Solving for p, Initial residual = 0.0594534, Final residual = 0.00393751, No Iterations 1
GAMG:  Solving for p, Initial residual = 0.0197531, Final residual = 0.00170683, No Iterations 1
GAMG:  Solving for p, Initial residual = 0.00926804, Final residual = 0.000348078, No Iterations 2
GAMG:  Solving for p, Initial residual = 0.00609138, Final residual = 0.000465087, No Iterations 1
GAMG:  Solving for p, Initial residual = 0.00343324, Final residual = 0.000134641, No Iterations 2
time step continuity errors : sum local = 0.0762017, global = 0.00105771, cumulative = -0.642363
ExecutionTime = 3.45 s  ClockTime = 3 s

Time = 56

smoothSolver:  Solving for Ux, Initial residual = 0.00879342, Final residual = 4.33907e-06, No Iterations 2
smoothSolver:  Solving for Uy, Initial residual = 0.00865473, Final residual = 4.22435e-06, No Iterations 2
smoothSolver:  Solving for Uz, Initial residual = 0.0108203, Final residual = 4.78436e-06, No Iterations 2
GAMG:  Solving for p, Initial residual = 0.0583652, Final residual = 0.00379292, No Iterations 1
GAMG:  Solving for p, Initial residual = 0.0191688, Final residual = 0.00161147, No Iterations 1
GAMG:  Solving for p, Initial residual = 0.0088467, Final residual = 0.000881836, No Iterations 1
GAMG:  Solving for p, Initial residual = 0.00507118, Final residual = 0.000203473, No Iterations 2
GAMG:  Solving for p, Initial residual = 0.00368848, Final residual = 0.000274628, No Iterations 1
time step continuity errors : sum local = 0.160843, global = -0.010748, cumulative = -0.653111
ExecutionTime = 3.5 s  ClockTime = 3 s

Time = 57

smoothSolver:  Solving for Ux, Initial residual = 0.00870066, Final residual = 4.2861e-06, No Iterations 2
smoothSolver:  Solving for Uy, Initial residual = 0.00854801, Final residual = 4.15007e-06, No Iterations 2
smoothSolver:  Solving for Uz, Initial residual = 0.0106618, Final residual = 4.73568e-06, No Iterations 2
GAMG:  Solving for p, Initial residual = 0.0569917, Final residual = 0.00367516, No Iterations 1
GAMG:  Solving for p, Initial residual = 0.0186509, Final residual = 0.00152472, No Iterations 1
GAMG:  Solving for p, Initial residual = 0.00852217, Final residual = 0.000811453, No Iterations 1
GAMG:  Solving for p, Initial residual = 0.00483347, Final residual = 0.000200867, No Iterations 2
GAMG:  Solving for p, Initial residual = 0.00355317, Final residual = 0.000248019, No Iterations 1
time step continuity errors : sum local = 0.150483, global = -0.0224221, cumulative = -0.675533
ExecutionTime = 3.56 s  ClockTime = 3 s

Time = 58

smoothSolver:  Solving for Ux, Initial residual = 0.00860735, Final residual = 4.25181e-06, No Iterations 2
smoothSolver:  Solving for Uy, Initial residual = 0.00845037, Final residual = 4.0659e-06, No Iterations 2
smoothSolver:  Solving for Uz, Initial residual = 0.0105047, Final residual = 4.64166e-06, No Iterations 2
GAMG:  Solving for p, Initial residual = 0.0557701, Final residual = 0.00360844, No Iterations 1
GAMG:  Solving for p, Initial residual = 0.0183229, Final residual = 0.00146927, No Iterations 1
GAMG:  Solving for p, Initial residual = 0.0083203, Final residual = 0.000772396, No Iterations 1
GAMG:  Solving for p, Initial residual = 0.00469874, Final residual = 0.000207976, No Iterations 2
GAMG:  Solving for p, Initial residual = 0.00356366, Final residual = 0.000241403, No Iterations 1
time step continuity errors : sum local = 0.149885, global = -0.0290532, cumulative = -0.704586
ExecutionTime = 3.61 s  ClockTime = 3 s

Time = 59

smoothSolver:  Solving for Ux, Initial residual = 0.0085147, Final residual = 4.20292e-06, No Iterations 2
smoothSolver:  Solving for Uy, Initial residual = 0.00835728, Final residual = 4.02447e-06, No Iterations 2
smoothSolver:  Solving for Uz, Initial residual = 0.010332, Final residual = 4.56696e-06, No Iterations 2
GAMG:  Solving for p, Initial residual = 0.0543641, Final residual = 0.00356154, No Iterations 1
GAMG:  Solving for p, Initial residual = 0.0179259, Final residual = 0.00144354, No Iterations 1
GAMG:  Solving for p, Initial residual = 0.00814967, Final residual = 0.000761253, No Iterations 1
GAMG:  Solving for p, Initial residual = 0.00460928, Final residual = 0.000204471, No Iterations 2
GAMG:  Solving for p, Initial residual = 0.00351567, Final residual = 0.000241818, No Iterations 1
time step continuity errors : sum local = 0.152493, global = -0.0316386, cumulative = -0.736225
ExecutionTime = 3.68 s  ClockTime = 4 s

Time = 60

smoothSolver:  Solving for Ux, Initial residual = 0.00842523, Final residual = 4.13362e-06, No Iterations 2
smoothSolver:  Solving for Uy, Initial residual = 0.0082777, Final residual = 3.96954e-06, No Iterations 2
smoothSolver:  Solving for Uz, Initial residual = 0.0101572, Final residual = 4.4677e-06, No Iterations 2
GAMG:  Solving for p, Initial residual = 0.0531435, Final residual = 0.00350957, No Iterations 1
GAMG:  Solving for p, Initial residual = 0.0175538, Final residual = 0.00141458, No Iterations 1
GAMG:  Solving for p, Initial residual = 0.00799401, Final residual = 0.00075115, No Iterations 1
GAMG:  Solving for p, Initial residual = 0.00451914, Final residual = 0.000189829, No Iterations 2
GAMG:  Solving for p, Initial residual = 0.00337302, Final residual = 0.000236347, No Iterations 1
time step continuity errors : sum local = 0.150269, global = -0.0307963, cumulative = -0.767021
ExecutionTime = 3.74 s  ClockTime = 4 s

Time = 61

smoothSolver:  Solving for Ux, Initial residual = 0.00833322, Final residual = 4.10377e-06, No Iterations 2
smoothSolver:  Solving for Uy, Initial residual = 0.00817573, Final residual = 3.8953e-06, No Iterations 2
smoothSolver:  Solving for Uz, Initial residual = 0.00998865, Final residual = 4.38861e-06, No Iterations 2
GAMG:  Solving for p, Initial residual = 0.0520029, Final residual = 0.0034499, No Iterations 1
GAMG:  Solving for p, Initial residual = 0.0172536, Final residual = 0.00138088, No Iterations 1
GAMG:  Solving for p, Initial residual = 0.00782453, Final residual = 0.000730909, No Iterations 1
GAMG:  Solving for p, Initial residual = 0.00437921, Final residual = 0.000166022, No Iterations 2
GAMG:  Solving for p, Initial residual = 0.00312372, Final residual = 0.000221709, No Iterations 1
time step continuity errors : sum local = 0.141358, global = -0.0259785, cumulative = -0.793
ExecutionTime = 3.79 s  ClockTime = 4 s

Time = 62

smoothSolver:  Solving for Ux, Initial residual = 0.00823767, Final residual = 4.04339e-06, No Iterations 2
smoothSolver:  Solving for Uy, Initial residual = 0.00808272, Final residual = 3.85502e-06, No Iterations 2
smoothSolver:  Solving for Uz, Initial residual = 0.00982281, Final residual = 4.33256e-06, No Iterations 2
GAMG:  Solving for p, Initial residual = 0.0510874, Final residual = 0.00338018, No Iterations 1
GAMG:  Solving for p, Initial residual = 0.0169568, Final residual = 0.00135577, No Iterations 1
GAMG:  Solving for p, Initial residual = 0.00766571, Final residual = 0.00070821, No Iterations 1
GAMG:  Solving for p, Initial residual = 0.00425556, Final residual = 0.00042284, No Iterations 1
GAMG:  Solving for p, Initial residual = 0.00261232, Final residual = 0.000102585, No Iterations 2
time step continuity errors : sum local = 0.0648323, global = -0.0112195, cumulative = -0.804219
ExecutionTime = 3.86 s  ClockTime = 4 s

Time = 63

smoothSolver:  Solving for Ux, Initial residual = 0.00813146, Final residual = 3.97018e-06, No Iterations 2
smoothSolver:  Solving for Uy, Initial residual = 0.00798899, Final residual = 3.82523e-06, No Iterations 2
smoothSolver:  Solving for Uz, Initial residual = 0.00964669, Final residual = 4.27039e-06, No Iterations 2
GAMG:  Solving for p, Initial residual = 0.0498533, Final residual = 0.00328246, No Iterations 1
GAMG:  Solving for p, Initial residual = 0.0166029, Final residual = 0.00133704, No Iterations 1
GAMG:  Solving for p, Initial residual = 0.00752357, Final residual = 0.000697145, No Iterations 1
GAMG:  Solving for p, Initial residual = 0.00416492, Final residual = 0.000416295, No Iterations 1
GAMG:  Solving for p, Initial residual = 0.00254453, Final residual = 9.19898e-05, No Iterations 2
time step continuity errors : sum local = 0.0584605, global = -0.00857396, cumulative = -0.812793
ExecutionTime = 3.92 s  ClockTime = 4 s

Time = 64

smoothSolver:  Solving for Ux, Initial residual = 0.00802925, Final residual = 3.90609e-06, No Iterations 2
smoothSolver:  Solving for Uy, Initial residual = 0.0078959, Final residual = 3.77647e-06, No Iterations 2
smoothSolver:  Solving for Uz, Initial residual = 0.00948887, Final residual = 4.20058e-06, No Iterations 2
GAMG:  Solving for p, Initial residual = 0.0491024, Final residual = 0.00321173, No Iterations 1
GAMG:  Solving for p, Initial residual = 0.0163962, Final residual = 0.00131958, No Iterations 1
GAMG:  Solving for p, Initial residual = 0.00744956, Final residual = 0.000697297, No Iterations 1
GAMG:  Solving for p, Initial residual = 0.00415001, Final residual = 0.000145691, No Iterations 2
GAMG:  Solving for p, Initial residual = 0.00282558, Final residual = 0.000207718, No Iterations 1
time step continuity errors : sum local = 0.131771, global = 0.00725353, cumulative = -0.805539
ExecutionTime = 3.98 s  ClockTime = 4 s

Time = 65

smoothSolver:  Solving for Ux, Initial residual = 0.00793467, Final residual = 3.835e-06, No Iterations 2
smoothSolver:  Solving for Uy, Initial residual = 0.00779797, Final residual = 3.72791e-06, No Iterations 2
smoothSolver:  Solving for Uz, Initial residual = 0.00932985, Final residual = 4.16321e-06, No Iterations 2
GAMG:  Solving for p, Initial residual = 0.0483773, Final residual = 0.00318284, No Iterations 1
GAMG:  Solving for p, Initial residual = 0.0161984, Final residual = 0.00131352, No Iterations 1
GAMG:  Solving for p, Initial residual = 0.00741157, Final residual = 0.00070898, No Iterations 1
GAMG:  Solving for p, Initial residual = 0.00417473, Final residual = 0.000158657, No Iterations 2
GAMG:  Solving for p, Initial residual = 0.00294629, Final residual = 0.000222822, No Iterations 1
time step continuity errors : sum local = 0.140933, global = 0.017697, cumulative = -0.787842
ExecutionTime = 4.03 s  ClockTime = 4 s

Time = 66

smoothSolver:  Solving for Ux, Initial residual = 0.00784215, Final residual = 3.78246e-06, No Iterations 2
smoothSolver:  Solving for Uy, Initial residual = 0.00772297, Final residual = 3.69169e-06, No Iterations 2
smoothSolver:  Solving for Uz, Initial residual = 0.00918551, Final residual = 4.09902e-06, No Iterations 2
GAMG:  Solving for p, Initial residual = 0.0478479, Final residual = 0.00316333, No Iterations 1
GAMG:  Solving for p, Initial residual = 0.0160345, Final residual = 0.00131868, No Iterations 1
GAMG:  Solving for p, Initial residual = 0.00741325, Final residual = 0.000721606, No Iterations 1
GAMG:  Solving for p, Initial residual = 0.00422141, Final residual = 0.000169104, No Iterations 2
GAMG:  Solving for p, Initial residual = 0.00306926, Final residual = 0.000236095, No Iterations 1
time step continuity errors : sum local = 0.149237, global = 0.0244024, cumulative = -0.76344
ExecutionTime = 4.09 s  ClockTime = 4 s

Time = 67

smoothSolver:  Solving for Ux, Initial residual = 0.00775235, Final residual = 3.75213e-06, No Iterations 2
smoothSolver:  Solving for Uy, Initial residual = 0.00764861, Final residual = 3.66532e-06, No Iterations 2
smoothSolver:  Solving for Uz, Initial residual = 0.00903679, Final residual = 4.06845e-06, No Iterations 2
GAMG:  Solving for p, Initial residual = 0.047432, Final residual = 0.00315939, No Iterations 1
GAMG:  Solving for p, Initial residual = 0.015931, Final residual = 0.00132539, No Iterations 1
GAMG:  Solving for p, Initial residual = 0.00741229, Final residual = 0.000723219, No Iterations 1
GAMG:  Solving for p, Initial residual = 0.00423964, Final residual = 0.000174629, No Iterations 2
GAMG:  Solving for p, Initial residual = 0.00313466, Final residual = 0.000242938, No Iterations 1
time step continuity errors : sum local = 0.154339, global = 0.0282472, cumulative = -0.735193
ExecutionTime = 4.16 s  ClockTime = 4 s

Time = 68

smoothSolver:  Solving for Ux, Initial residual = 0.00766662, Final residual = 3.73427e-06, No Iterations 2
smoothSolver:  Solving for Uy, Initial residual = 0.00757182, Final residual = 3.64572e-06, No Iterations 2
smoothSolver:  Solving for Uz, Initial residual = 0.00890162, Final residual = 4.00498e-06, No Iterations 2
GAMG:  Solving for p, Initial residual = 0.047082, Final residual = 0.00314853, No Iterations 1
GAMG:  Solving for p, Initial residual = 0.015948, Final residual = 0.00132469, No Iterations 1
GAMG:  Solving for p, Initial residual = 0.00741331, Final residual = 0.000721443, No Iterations 1
GAMG:  Solving for p, Initial residual = 0.00424856, Final residual = 0.000176491, No Iterations 2
GAMG:  Solving for p, Initial residual = 0.00314469, Final residual = 0.000244346, No Iterations 1
time step continuity errors : sum local = 0.155798, global = 0.0282664, cumulative = -0.706926
ExecutionTime = 4.21 s  ClockTime = 4 s

Time = 69

smoothSolver:  Solving for Ux, Initial residual = 0.00757874, Final residual = 3.70161e-06, No Iterations 2
smoothSolver:  Solving for Uy, Initial residual = 0.00749294, Final residual = 3.61445e-06, No Iterations 2
smoothSolver:  Solving for Uz, Initial residual = 0.00877851, Final residual = 3.9694e-06, No Iterations 2
GAMG:  Solving for p, Initial residual = 0.0465819, Final residual = 0.00310503, No Iterations 1
GAMG:  Solving for p, Initial residual = 0.0158246, Final residual = 0.00129967, No Iterations 1
GAMG:  Solving for p, Initial residual = 0.00733137, Final residual = 0.000705361, No Iterations 1
GAMG:  Solving for p, Initial residual = 0.00416898, Final residual = 0.000170778, No Iterations 2
GAMG:  Solving for p, Initial residual = 0.00307593, Final residual = 0.000236227, No Iterations 1
time step continuity errors : sum local = 0.15229, global = 0.0258061, cumulative = -0.68112
ExecutionTime = 4.28 s  ClockTime = 4 s

Time = 70

smoothSolver:  Solving for Ux, Initial residual = 0.00749402, Final residual = 3.67657e-06, No Iterations 2
smoothSolver:  Solving for Uy, Initial residual = 0.00741844, Final residual = 3.56634e-06, No Iterations 2
smoothSolver:  Solving for Uz, Initial residual = 0.00864265, Final residual = 3.92265e-06, No Iterations 2
GAMG:  Solving for p, Initial residual = 0.0463982, Final residual = 0.00306822, No Iterations 1
GAMG:  Solving for p, Initial residual = 0.0157098, Final residual = 0.00127155, No Iterations 1
GAMG:  Solving for p, Initial residual = 0.00722926, Final residual = 0.000685006, No Iterations 1
GAMG:  Solving for p, Initial residual = 0.00408089, Final residual = 0.000160653, No Iterations 2
GAMG:  Solving for p, Initial residual = 0.00296508, Final residual = 0.000225598, No Iterations 1
time step continuity errors : sum local = 0.146583, global = 0.02153, cumulative = -0.65959
ExecutionTime = 4.33 s  ClockTime = 4 s

Time = 71

smoothSolver:  Solving for Ux, Initial residual = 0.00742465, Final residual = 3.65569e-06, No Iterations 2
smoothSolver:  Solving for Uy, Initial residual = 0.00733949, Final residual = 3.54709e-06, No Iterations 2
smoothSolver:  Solving for Uz, Initial residual = 0.00849829, Final residual = 3.91239e-06, No Iterations 2
GAMG:  Solving for p, Initial residual = 0.0458882, Final residual = 0.00300785, No Iterations 1
GAMG:  Solving for p, Initial residual = 0.015509, Final residual = 0.00123308, No Iterations 1
GAMG:  Solving for p, Initial residual = 0.00707964, Final residual = 0.000656849, No Iterations 1
GAMG:  Solving for p, Initial residual = 0.00397441, Final residual = 0.000148764, No Iterations 2
GAMG:  Solving for p, Initial residual = 0.00282534, Final residual = 0.000212288, No Iterations 1
time step continuity errors : sum local = 0.139945, global = 0.016016, cumulative = -0.643574
ExecutionTime = 4.39 s  ClockTime = 4 s

Time = 72

smoothSolver:  Solving for Ux, Initial residual = 0.00736651, Final residual = 3.63398e-06, No Iterations 2
smoothSolver:  Solving for Uy, Initial residual = 0.00726674, Final residual = 3.49023e-06, No Iterations 2
smoothSolver:  Solving for Uz, Initial residual = 0.00834777, Final residual = 3.84971e-06, No Iterations 2
GAMG:  Solving for p, Initial residual = 0.0455775, Final residual = 0.00298121, No Iterations 1
GAMG:  Solving for p, Initial residual = 0.0153335, Final residual = 0.00121375, No Iterations 1
GAMG:  Solving for p, Initial residual = 0.0070062, Final residual = 0.000643695, No Iterations 1
GAMG:  Solving for p, Initial residual = 0.00392773, Final residual = 0.000143167, No Iterations 2
GAMG:  Solving for p, Initial residual = 0.00274251, Final residual = 0.000207869, No Iterations 1
time step continuity errors : sum local = 0.137944, global = 0.0102985, cumulative = -0.633276
ExecutionTime = 4.45 s  ClockTime = 4 s

Time = 73

smoothSolver:  Solving for Ux, Initial residual = 0.00729206, Final residual = 3.58964e-06, No Iterations 2
smoothSolver:  Solving for Uy, Initial residual = 0.00717604, Final residual = 3.44385e-06, No Iterations 2
smoothSolver:  Solving for Uz, Initial residual = 0.00819752, Final residual = 3.75051e-06, No Iterations 2
GAMG:  Solving for p, Initial residual = 0.0450364, Final residual = 0.00292604, No Iterations 1
GAMG:  Solving for p, Initial residual = 0.0151702, Final residual = 0.00118807, No Iterations 1
GAMG:  Solving for p, Initial residual = 0.00691119, Final residual = 0.000627009, No Iterations 1
GAMG:  Solving for p, Initial residual = 0.0038544, Final residual = 0.000384456, No Iterations 1
GAMG:  Solving for p, Initial residual = 0.00240553, Final residual = 9.75314e-05, No Iterations 2
time step continuity errors : sum local = 0.065068, global = -0.00444862, cumulative = -0.637724
ExecutionTime = 4.51 s  ClockTime = 4 s

Time = 74

smoothSolver:  Solving for Ux, Initial residual = 0.00721723, Final residual = 3.53425e-06, No Iterations 2
smoothSolver:  Solving for Uy, Initial residual = 0.00708175, Final residual = 3.39181e-06, No Iterations 2
smoothSolver:  Solving for Uz, Initial residual = 0.00806047, Final residual = 3.66083e-06, No Iterations 2
GAMG:  Solving for p, Initial residual = 0.0445231, Final residual = 0.00285233, No Iterations 1
GAMG:  Solving for p, Initial residual = 0.015008, Final residual = 0.00116069, No Iterations 1
GAMG:  Solving for p, Initial residual = 0.00680357, Final residual = 0.000606003, No Iterations 1
GAMG:  Solving for p, Initial residual = 0.00376922, Final residual = 0.000370159, No Iterations 1
GAMG:  Solving for p, Initial residual = 0.0023262, Final residual = 9.04456e-05, No Iterations 2
time step continuity errors : sum local = 0.0605798, global = -0.00497487, cumulative = -0.642699
ExecutionTime = 4.57 s  ClockTime = 4 s

Time = 75

smoothSolver:  Solving for Ux, Initial residual = 0.0071352, Final residual = 3.47701e-06, No Iterations 2
smoothSolver:  Solving for Uy, Initial residual = 0.0069972, Final residual = 3.34493e-06, No Iterations 2
smoothSolver:  Solving for Uz, Initial residual = 0.00792339, Final residual = 3.59307e-06, No Iterations 2
GAMG:  Solving for p, Initial residual = 0.0439301, Final residual = 0.00277481, No Iterations 1
GAMG:  Solving for p, Initial residual = 0.014802, Final residual = 0.00112511, No Iterations 1
GAMG:  Solving for p, Initial residual = 0.00669374, Final residual = 0.000584322, No Iterations 1
GAMG:  Solving for p, Initial residual = 0.00369695, Final residual = 0.000356126, No Iterations 1
GAMG:  Solving for p, Initial residual = 0.00226091, Final residual = 8.48994e-05, No Iterations 2
time step continuity errors : sum local = 0.0570434, global = -0.00515839, cumulative = -0.647858
ExecutionTime = 4.63 s  ClockTime = 4 s

Time = 76

smoothSolver:  Solving for Ux, Initial residual = 0.00705627, Final residual = 3.45248e-06, No Iterations 2
smoothSolver:  Solving for Uy, Initial residual = 0.00692329, Final residual = 3.31427e-06, No Iterations 2
smoothSolver:  Solving for Uz, Initial residual = 0.00778497, Final residual = 3.54671e-06, No Iterations 2
GAMG:  Solving for p, Initial residual = 0.0432505, Final residual = 0.00271307, No Iterations 1
GAMG:  Solving for p, Initial residual = 0.014643, Final residual = 0.00110208, No Iterations 1
GAMG:  Solving for p, Initial residual = 0.00661411, Final residual = 0.000568837, No Iterations 1
GAMG:  Solving for p, Initial residual = 0.0036336, Final residual = 0.000345542, No Iterations 1
GAMG:  Solving for p, Initial residual = 0.00220845, Final residual = 8.15286e-05, No Iterations 2
time step continuity errors : sum local = 0.0551569, global = -0.00474002, cumulative = -0.652598
ExecutionTime = 4.69 s  ClockTime = 5 s

Time = 77

smoothSolver:  Solving for Ux, Initial residual = 0.00697788, Final residual = 3.41153e-06, No Iterations 2
smoothSolver:  Solving for Uy, Initial residual = 0.00685481, Final residual = 3.28438e-06, No Iterations 2
smoothSolver:  Solving for Uz, Initial residual = 0.00765391, Final residual = 3.49094e-06, No Iterations 2
GAMG:  Solving for p, Initial residual = 0.042517, Final residual = 0.00264671, No Iterations 1
GAMG:  Solving for p, Initial residual = 0.0144555, Final residual = 0.00107783, No Iterations 1
GAMG:  Solving for p, Initial residual = 0.00652915, Final residual = 0.000554776, No Iterations 1
GAMG:  Solving for p, Initial residual = 0.00356863, Final residual = 0.000337463, No Iterations 1
GAMG:  Solving for p, Initial residual = 0.00217351, Final residual = 8.07842e-05, No Iterations 2
time step continuity errors : sum local = 0.0549159, global = -0.00379682, cumulative = -0.656394
ExecutionTime = 4.75 s  ClockTime = 5 s

Time = 78

smoothSolver:  Solving for Ux, Initial residual = 0.00690577, Final residual = 3.3783e-06, No Iterations 2
smoothSolver:  Solving for Uy, Initial residual = 0.00677878, Final residual = 3.25154e-06, No Iterations 2
smoothSolver:  Solving for Uz, Initial residual = 0.0075424, Final residual = 3.45512e-06, No Iterations 2
GAMG:  Solving for p, Initial residual = 0.0415933, Final residual = 0.00257773, No Iterations 1
GAMG:  Solving for p, Initial residual = 0.0141127, Final residual = 0.00104373, No Iterations 1
GAMG:  Solving for p, Initial residual = 0.00636089, Final residual = 0.000538423, No Iterations 1
GAMG:  Solving for p, Initial residual = 0.00347965, Final residual = 0.000326424, No Iterations 1
GAMG:  Solving for p, Initial residual = 0.00211268, Final residual = 7.8968e-05, No Iterations 2
time step continuity errors : sum local = 0.0540368, global = -0.00267624, cumulative = -0.659071
ExecutionTime = 4.8 s  ClockTime = 5 s

Time = 79

smoothSolver:  Solving for Ux, Initial residual = 0.00682532, Final residual = 3.32718e-06, No Iterations 2
smoothSolver:  Solving for Uy, Initial residual = 0.00670909, Final residual = 3.22857e-06, No Iterations 2
smoothSolver:  Solving for Uz, Initial residual = 0.00743258, Final residual = 3.40492e-06, No Iterations 2
GAMG:  Solving for p, Initial residual = 0.0409194, Final residual = 0.00253845, No Iterations 1
GAMG:  Solving for p, Initial residual = 0.0137915, Final residual = 0.00101339, No Iterations 1
GAMG:  Solving for p, Initial residual = 0.00622588, Final residual = 0.000522277, No Iterations 1
GAMG:  Solving for p, Initial residual = 0.00339402, Final residual = 0.000315465, No Iterations 1
GAMG:  Solving for p, Initial residual = 0.00206916, Final residual = 7.6912e-05, No Iterations 2
time step continuity errors : sum local = 0.0528705, global = -0.00151845, cumulative = -0.660589
ExecutionTime = 4.86 s  ClockTime = 5 s

Time = 80

smoothSolver:  Solving for Ux, Initial residual = 0.00675636, Final residual = 3.29362e-06, No Iterations 2
smoothSolver:  Solving for Uy, Initial residual = 0.00665657, Final residual = 3.21279e-06, No Iterations 2
smoothSolver:  Solving for Uz, Initial residual = 0.00731901, Final residual = 3.41338e-06, No Iterations 2
GAMG:  Solving for p, Initial residual = 0.0404011, Final residual = 0.00252002, No Iterations 1
GAMG:  Solving for p, Initial residual = 0.0135787, Final residual = 0.000995017, No Iterations 1
GAMG:  Solving for p, Initial residual = 0.00614287, Final residual = 0.000512416, No Iterations 1
GAMG:  Solving for p, Initial residual = 0.00335438, Final residual = 0.000310302, No Iterations 1
GAMG:  Solving for p, Initial residual = 0.00205967, Final residual = 7.47261e-05, No Iterations 2
time step continuity errors : sum local = 0.0516839, global = -0.00110194, cumulative = -0.661691
ExecutionTime = 4.92 s  ClockTime = 5 s

Time = 81

smoothSolver:  Solving for Ux, Initial residual = 0.00667871, Final residual = 3.22814e-06, No Iterations 2
smoothSolver:  Solving for Uy, Initial residual = 0.00659589, Final residual = 3.17695e-06, No Iterations 2
smoothSolver:  Solving for Uz, Initial residual = 0.00719087, Final residual = 3.3288e-06, No Iterations 2
GAMG:  Solving for p, Initial residual = 0.0401439, Final residual = 0.0025356, No Iterations 1
GAMG:  Solving for p, Initial residual = 0.0134581, Final residual = 0.000995066, No Iterations 1
GAMG:  Solving for p, Initial residual = 0.006088, Final residual = 0.000509382, No Iterations 1
GAMG:  Solving for p, Initial residual = 0.00333954, Final residual = 0.000306108, No Iterations 1
GAMG:  Solving for p, Initial residual = 0.00205726, Final residual = 0.000201931, No Iterations 1
time step continuity errors : sum local = 0.139839, global = 0.00297739, cumulative = -0.658714
ExecutionTime = 4.98 s  ClockTime = 5 s

Time = 82

smoothSolver:  Solving for Ux, Initial residual = 0.00661011, Final residual = 3.16425e-06, No Iterations 2
smoothSolver:  Solving for Uy, Initial residual = 0.00654514, Final residual = 3.12927e-06, No Iterations 2
smoothSolver:  Solving for Uz, Initial residual = 0.00706645, Final residual = 3.25374e-06, No Iterations 2
GAMG:  Solving for p, Initial residual = 0.0398541, Final residual = 0.00254318, No Iterations 1
GAMG:  Solving for p, Initial residual = 0.0134178, Final residual = 0.00100205, No Iterations 1
GAMG:  Solving for p, Initial residual = 0.00609358, Final residual = 0.000516079, No Iterations 1
GAMG:  Solving for p, Initial residual = 0.00338198, Final residual = 0.000311571, No Iterations 1
GAMG:  Solving for p, Initial residual = 0.00209948, Final residual = 0.000207625, No Iterations 1
time step continuity errors : sum local = 0.143708, global = 0.00463741, cumulative = -0.654076
ExecutionTime = 5.03 s  ClockTime = 5 s

Time = 83

[...]
GAMG:  Solving for p, Initial residual = 0.00211683, Final residual = 0.000109534, No Iterations 2
GAMG:  Solving for p, Initial residual = 0.00146472, Final residual = 0.000128998, No Iterations 1
GAMG:  Solving for p, Initial residual = 0.00081703, Final residual = 5.16766e-05, No Iterations 2
time step continuity errors : sum local = 1.82576e+08, global = -3.46696e+07, cumulative = -1.67315e+09
ExecutionTime = 121.58 s  ClockTime = 121 s

Time = 1981

smoothSolver:  Solving for Ux, Initial residual = 0.0113248, Final residual = 5.97742e-06, No Iterations 2
smoothSolver:  Solving for Uy, Initial residual = 0.0117674, Final residual = 5.96461e-06, No Iterations 2
smoothSolver:  Solving for Uz, Initial residual = 0.0115848, Final residual = 4.46744e-06, No Iterations 2
GAMG:  Solving for p, Initial residual = 0.0136185, Final residual = 0.00100028, No Iterations 1
GAMG:  Solving for p, Initial residual = 0.00459702, Final residual = 0.000449071, No Iterations 1
GAMG:  Solving for p, Initial residual = 0.00218039, Final residual = 0.000112689, No Iterations 2
GAMG:  Solving for p, Initial residual = 0.00151148, Final residual = 0.000132925, No Iterations 1
GAMG:  Solving for p, Initial residual = 0.000837603, Final residual = 5.35745e-05, No Iterations 2
time step continuity errors : sum local = 1.87766e+08, global = -3.42058e+07, cumulative = -1.70736e+09
ExecutionTime = 121.64 s  ClockTime = 122 s

Time = 1982

smoothSolver:  Solving for Ux, Initial residual = 0.0113441, Final residual = 5.98785e-06, No Iterations 2
smoothSolver:  Solving for Uy, Initial residual = 0.0117827, Final residual = 5.94952e-06, No Iterations 2
smoothSolver:  Solving for Uz, Initial residual = 0.0116056, Final residual = 4.4377e-06, No Iterations 2
GAMG:  Solving for p, Initial residual = 0.0136873, Final residual = 0.00101711, No Iterations 1
GAMG:  Solving for p, Initial residual = 0.00460504, Final residual = 0.00044864, No Iterations 1
GAMG:  Solving for p, Initial residual = 0.00219614, Final residual = 0.000112624, No Iterations 2
GAMG:  Solving for p, Initial residual = 0.0015361, Final residual = 0.000133078, No Iterations 1
GAMG:  Solving for p, Initial residual = 0.000854203, Final residual = 5.41201e-05, No Iterations 2
time step continuity errors : sum local = 1.93379e+08, global = -3.33282e+07, cumulative = -1.74068e+09
ExecutionTime = 121.7 s  ClockTime = 122 s

Time = 1983

smoothSolver:  Solving for Ux, Initial residual = 0.0113388, Final residual = 5.95008e-06, No Iterations 2
smoothSolver:  Solving for Uy, Initial residual = 0.0117796, Final residual = 5.92775e-06, No Iterations 2
smoothSolver:  Solving for Uz, Initial residual = 0.0116232, Final residual = 4.45369e-06, No Iterations 2
GAMG:  Solving for p, Initial residual = 0.0136723, Final residual = 0.00101726, No Iterations 1
GAMG:  Solving for p, Initial residual = 0.00458534, Final residual = 0.000448495, No Iterations 1
GAMG:  Solving for p, Initial residual = 0.00219422, Final residual = 0.000112124, No Iterations 2
GAMG:  Solving for p, Initial residual = 0.00155752, Final residual = 0.000133203, No Iterations 1
GAMG:  Solving for p, Initial residual = 0.000872645, Final residual = 5.38562e-05, No Iterations 2
time step continuity errors : sum local = 1.96715e+08, global = -3.27715e+07, cumulative = -1.77346e+09
ExecutionTime = 121.76 s  ClockTime = 122 s

Time = 1984

smoothSolver:  Solving for Ux, Initial residual = 0.0113407, Final residual = 5.9e-06, No Iterations 2
smoothSolver:  Solving for Uy, Initial residual = 0.011768, Final residual = 5.93898e-06, No Iterations 2
smoothSolver:  Solving for Uz, Initial residual = 0.011628, Final residual = 4.47716e-06, No Iterations 2
GAMG:  Solving for p, Initial residual = 0.0125009, Final residual = 0.000933114, No Iterations 1
GAMG:  Solving for p, Initial residual = 0.00420435, Final residual = 0.000412395, No Iterations 1
GAMG:  Solving for p, Initial residual = 0.00201748, Final residual = 0.000102955, No Iterations 2
GAMG:  Solving for p, Initial residual = 0.00143605, Final residual = 0.000121757, No Iterations 1
GAMG:  Solving for p, Initial residual = 0.0008095, Final residual = 4.92618e-05, No Iterations 2
time step continuity errors : sum local = 1.99747e+08, global = -3.25871e+07, cumulative = -1.80604e+09
ExecutionTime = 121.82 s  ClockTime = 122 s

Time = 1985

smoothSolver:  Solving for Ux, Initial residual = 0.0113325, Final residual = 5.93429e-06, No Iterations 2
smoothSolver:  Solving for Uy, Initial residual = 0.0117695, Final residual = 5.99771e-06, No Iterations 2
smoothSolver:  Solving for Uz, Initial residual = 0.0116288, Final residual = 4.44522e-06, No Iterations 2
GAMG:  Solving for p, Initial residual = 0.0131436, Final residual = 0.000976072, No Iterations 1
GAMG:  Solving for p, Initial residual = 0.00441982, Final residual = 0.000437045, No Iterations 1
GAMG:  Solving for p, Initial residual = 0.00211768, Final residual = 0.000108384, No Iterations 2
GAMG:  Solving for p, Initial residual = 0.0015096, Final residual = 0.000127509, No Iterations 1
GAMG:  Solving for p, Initial residual = 0.000850829, Final residual = 5.12866e-05, No Iterations 2
time step continuity errors : sum local = 2.02457e+08, global = -3.25239e+07, cumulative = -1.83857e+09
ExecutionTime = 121.88 s  ClockTime = 122 s

Time = 1986

smoothSolver:  Solving for Ux, Initial residual = 0.0113001, Final residual = 5.89844e-06, No Iterations 2
smoothSolver:  Solving for Uy, Initial residual = 0.0117557, Final residual = 5.94839e-06, No Iterations 2
smoothSolver:  Solving for Uz, Initial residual = 0.0116558, Final residual = 4.39827e-06, No Iterations 2
GAMG:  Solving for p, Initial residual = 0.0133531, Final residual = 0.000997789, No Iterations 1
GAMG:  Solving for p, Initial residual = 0.00454071, Final residual = 0.000448441, No Iterations 1
GAMG:  Solving for p, Initial residual = 0.00216335, Final residual = 0.000109764, No Iterations 2
GAMG:  Solving for p, Initial residual = 0.00153005, Final residual = 0.000128136, No Iterations 1
GAMG:  Solving for p, Initial residual = 0.000860726, Final residual = 5.11646e-05, No Iterations 2
time step continuity errors : sum local = 2.03107e+08, global = -3.24928e+07, cumulative = -1.87106e+09
ExecutionTime = 121.94 s  ClockTime = 122 s

Time = 1987

smoothSolver:  Solving for Ux, Initial residual = 0.0113087, Final residual = 5.86866e-06, No Iterations 2
smoothSolver:  Solving for Uy, Initial residual = 0.011734, Final residual = 5.95752e-06, No Iterations 2
smoothSolver:  Solving for Uz, Initial residual = 0.011657, Final residual = 4.42984e-06, No Iterations 2
GAMG:  Solving for p, Initial residual = 0.013353, Final residual = 0.00101612, No Iterations 1
GAMG:  Solving for p, Initial residual = 0.00457622, Final residual = 0.000447199, No Iterations 1
GAMG:  Solving for p, Initial residual = 0.00218305, Final residual = 0.000109032, No Iterations 2
GAMG:  Solving for p, Initial residual = 0.00153697, Final residual = 0.000127389, No Iterations 1
GAMG:  Solving for p, Initial residual = 0.000859859, Final residual = 5.01177e-05, No Iterations 2
time step continuity errors : sum local = 2.02169e+08, global = -3.32221e+07, cumulative = -1.90428e+09
ExecutionTime = 122.01 s  ClockTime = 122 s

Time = 1988

smoothSolver:  Solving for Ux, Initial residual = 0.0112953, Final residual = 5.84739e-06, No Iterations 2
smoothSolver:  Solving for Uy, Initial residual = 0.0117124, Final residual = 6.01604e-06, No Iterations 2
smoothSolver:  Solving for Uz, Initial residual = 0.0116581, Final residual = 4.4853e-06, No Iterations 2
GAMG:  Solving for p, Initial residual = 0.01302, Final residual = 0.000990279, No Iterations 1
GAMG:  Solving for p, Initial residual = 0.00444373, Final residual = 0.000431459, No Iterations 1
GAMG:  Solving for p, Initial residual = 0.00210526, Final residual = 0.000105874, No Iterations 2
GAMG:  Solving for p, Initial residual = 0.00148822, Final residual = 0.000124151, No Iterations 1
GAMG:  Solving for p, Initial residual = 0.000823248, Final residual = 4.89687e-05, No Iterations 2
time step continuity errors : sum local = 2.07896e+08, global = -3.45156e+07, cumulative = -1.9388e+09
ExecutionTime = 122.07 s  ClockTime = 122 s

Time = 1989

smoothSolver:  Solving for Ux, Initial residual = 0.0112862, Final residual = 5.80212e-06, No Iterations 2
smoothSolver:  Solving for Uy, Initial residual = 0.011671, Final residual = 5.94869e-06, No Iterations 2
smoothSolver:  Solving for Uz, Initial residual = 0.0116397, Final residual = 4.49059e-06, No Iterations 2
GAMG:  Solving for p, Initial residual = 0.0129749, Final residual = 0.000981496, No Iterations 1
GAMG:  Solving for p, Initial residual = 0.00441168, Final residual = 0.000428322, No Iterations 1
GAMG:  Solving for p, Initial residual = 0.00208804, Final residual = 0.000104913, No Iterations 2
GAMG:  Solving for p, Initial residual = 0.0014744, Final residual = 0.000125207, No Iterations 1
GAMG:  Solving for p, Initial residual = 0.000814932, Final residual = 4.88483e-05, No Iterations 2
time step continuity errors : sum local = 2.1304e+08, global = -3.69559e+07, cumulative = -1.97575e+09
ExecutionTime = 122.13 s  ClockTime = 122 s

Time = 1990

smoothSolver:  Solving for Ux, Initial residual = 0.0113037, Final residual = 5.79972e-06, No Iterations 2
smoothSolver:  Solving for Uy, Initial residual = 0.0117072, Final residual = 5.91556e-06, No Iterations 2
smoothSolver:  Solving for Uz, Initial residual = 0.0116372, Final residual = 4.56536e-06, No Iterations 2
GAMG:  Solving for p, Initial residual = 0.0126926, Final residual = 0.00095313, No Iterations 1
GAMG:  Solving for p, Initial residual = 0.00435304, Final residual = 0.000419594, No Iterations 1
GAMG:  Solving for p, Initial residual = 0.00206239, Final residual = 0.000102732, No Iterations 2
GAMG:  Solving for p, Initial residual = 0.00145165, Final residual = 0.000124219, No Iterations 1
GAMG:  Solving for p, Initial residual = 0.000800295, Final residual = 4.80144e-05, No Iterations 2
time step continuity errors : sum local = 2.20036e+08, global = -3.90761e+07, cumulative = -2.01483e+09
ExecutionTime = 122.19 s  ClockTime = 122 s

Time = 1991

smoothSolver:  Solving for Ux, Initial residual = 0.0113117, Final residual = 5.78806e-06, No Iterations 2
smoothSolver:  Solving for Uy, Initial residual = 0.0116583, Final residual = 5.8539e-06, No Iterations 2
smoothSolver:  Solving for Uz, Initial residual = 0.0116342, Final residual = 4.5983e-06, No Iterations 2
GAMG:  Solving for p, Initial residual = 0.0122311, Final residual = 0.000932702, No Iterations 1
GAMG:  Solving for p, Initial residual = 0.00424403, Final residual = 0.00041527, No Iterations 1
GAMG:  Solving for p, Initial residual = 0.00200351, Final residual = 0.000100275, No Iterations 2
GAMG:  Solving for p, Initial residual = 0.00139769, Final residual = 0.000123184, No Iterations 1
GAMG:  Solving for p, Initial residual = 0.000769063, Final residual = 4.63913e-05, No Iterations 2
time step continuity errors : sum local = 2.26278e+08, global = -4.32894e+07, cumulative = -2.05812e+09
ExecutionTime = 122.25 s  ClockTime = 122 s

Time = 1992

smoothSolver:  Solving for Ux, Initial residual = 0.0113219, Final residual = 5.85631e-06, No Iterations 2
smoothSolver:  Solving for Uy, Initial residual = 0.0116814, Final residual = 5.93279e-06, No Iterations 2
smoothSolver:  Solving for Uz, Initial residual = 0.0116375, Final residual = 4.60657e-06, No Iterations 2
GAMG:  Solving for p, Initial residual = 0.0115913, Final residual = 0.000869739, No Iterations 1
GAMG:  Solving for p, Initial residual = 0.00403984, Final residual = 0.000388641, No Iterations 1
GAMG:  Solving for p, Initial residual = 0.00188562, Final residual = 9.39455e-05, No Iterations 2
GAMG:  Solving for p, Initial residual = 0.0013223, Final residual = 0.000116224, No Iterations 1
GAMG:  Solving for p, Initial residual = 0.000720701, Final residual = 4.45052e-05, No Iterations 2
time step continuity errors : sum local = 2.37008e+08, global = -4.51029e+07, cumulative = -2.10322e+09
ExecutionTime = 122.31 s  ClockTime = 122 s

Time = 1993

smoothSolver:  Solving for Ux, Initial residual = 0.0114106, Final residual = 5.94703e-06, No Iterations 2
smoothSolver:  Solving for Uy, Initial residual = 0.0117444, Final residual = 5.9729e-06, No Iterations 2
smoothSolver:  Solving for Uz, Initial residual = 0.0116235, Final residual = 4.61163e-06, No Iterations 2
GAMG:  Solving for p, Initial residual = 0.010614, Final residual = 0.000794937, No Iterations 1
GAMG:  Solving for p, Initial residual = 0.00369299, Final residual = 0.000355799, No Iterations 1
GAMG:  Solving for p, Initial residual = 0.00172039, Final residual = 8.7007e-05, No Iterations 2
GAMG:  Solving for p, Initial residual = 0.00118878, Final residual = 0.000106866, No Iterations 1
GAMG:  Solving for p, Initial residual = 0.000650052, Final residual = 4.01582e-05, No Iterations 2
time step continuity errors : sum local = 2.40855e+08, global = -5.07295e+07, cumulative = -2.15395e+09
ExecutionTime = 122.37 s  ClockTime = 122 s

Time = 1994

smoothSolver:  Solving for Ux, Initial residual = 0.0116267, Final residual = 5.98864e-06, No Iterations 2
smoothSolver:  Solving for Uy, Initial residual = 0.0118777, Final residual = 6.15369e-06, No Iterations 2
smoothSolver:  Solving for Uz, Initial residual = 0.01161, Final residual = 4.55397e-06, No Iterations 2
GAMG:  Solving for p, Initial residual = 0.0114733, Final residual = 0.00084964, No Iterations 1
GAMG:  Solving for p, Initial residual = 0.00399012, Final residual = 0.000383505, No Iterations 1
GAMG:  Solving for p, Initial residual = 0.00187766, Final residual = 9.46005e-05, No Iterations 2
GAMG:  Solving for p, Initial residual = 0.00128924, Final residual = 0.000112113, No Iterations 1
GAMG:  Solving for p, Initial residual = 0.000718334, Final residual = 4.50835e-05, No Iterations 2
time step continuity errors : sum local = 2.57849e+08, global = -4.78282e+07, cumulative = -2.20178e+09
ExecutionTime = 122.44 s  ClockTime = 122 s

Time = 1995

smoothSolver:  Solving for Ux, Initial residual = 0.0116511, Final residual = 5.98767e-06, No Iterations 2
smoothSolver:  Solving for Uy, Initial residual = 0.0118752, Final residual = 6.16823e-06, No Iterations 2
smoothSolver:  Solving for Uz, Initial residual = 0.0115812, Final residual = 4.55377e-06, No Iterations 2
GAMG:  Solving for p, Initial residual = 0.0121172, Final residual = 0.000904754, No Iterations 1
GAMG:  Solving for p, Initial residual = 0.00426, Final residual = 0.000416073, No Iterations 1
GAMG:  Solving for p, Initial residual = 0.00197188, Final residual = 0.000101246, No Iterations 2
GAMG:  Solving for p, Initial residual = 0.0013459, Final residual = 0.000118973, No Iterations 1
GAMG:  Solving for p, Initial residual = 0.000734973, Final residual = 4.61461e-05, No Iterations 2
time step continuity errors : sum local = 2.53915e+08, global = -5.20696e+07, cumulative = -2.25385e+09
ExecutionTime = 122.5 s  ClockTime = 122 s

Time = 1996

smoothSolver:  Solving for Ux, Initial residual = 0.0115352, Final residual = 5.97577e-06, No Iterations 2
smoothSolver:  Solving for Uy, Initial residual = 0.0119272, Final residual = 6.29308e-06, No Iterations 2
smoothSolver:  Solving for Uz, Initial residual = 0.0115783, Final residual = 4.53092e-06, No Iterations 2
GAMG:  Solving for p, Initial residual = 0.0125055, Final residual = 0.000913288, No Iterations 1
GAMG:  Solving for p, Initial residual = 0.00437184, Final residual = 0.000420508, No Iterations 1
GAMG:  Solving for p, Initial residual = 0.00203709, Final residual = 0.000102911, No Iterations 2
GAMG:  Solving for p, Initial residual = 0.00139388, Final residual = 0.000120325, No Iterations 1
GAMG:  Solving for p, Initial residual = 0.000767323, Final residual = 4.88398e-05, No Iterations 2
time step continuity errors : sum local = 2.66053e+08, global = -4.74972e+07, cumulative = -2.30135e+09
ExecutionTime = 122.56 s  ClockTime = 122 s

Time = 1997

smoothSolver:  Solving for Ux, Initial residual = 0.0115261, Final residual = 6.01574e-06, No Iterations 2
smoothSolver:  Solving for Uy, Initial residual = 0.01191, Final residual = 6.23731e-06, No Iterations 2
smoothSolver:  Solving for Uz, Initial residual = 0.0115699, Final residual = 4.52027e-06, No Iterations 2
GAMG:  Solving for p, Initial residual = 0.0125573, Final residual = 0.000909675, No Iterations 1
GAMG:  Solving for p, Initial residual = 0.0043974, Final residual = 0.00042704, No Iterations 1
GAMG:  Solving for p, Initial residual = 0.00205551, Final residual = 0.000106418, No Iterations 2
GAMG:  Solving for p, Initial residual = 0.00141067, Final residual = 0.000123724, No Iterations 1
GAMG:  Solving for p, Initial residual = 0.000774657, Final residual = 4.97551e-05, No Iterations 2
time step continuity errors : sum local = 2.74211e+08, global = -5.13243e+07, cumulative = -2.35267e+09
ExecutionTime = 122.63 s  ClockTime = 123 s

Time = 1998

smoothSolver:  Solving for Ux, Initial residual = 0.0115253, Final residual = 6.02949e-06, No Iterations 2
smoothSolver:  Solving for Uy, Initial residual = 0.0118666, Final residual = 6.20797e-06, No Iterations 2
smoothSolver:  Solving for Uz, Initial residual = 0.0115784, Final residual = 4.52091e-06, No Iterations 2
GAMG:  Solving for p, Initial residual = 0.0120568, Final residual = 0.000858747, No Iterations 1
GAMG:  Solving for p, Initial residual = 0.00421804, Final residual = 0.000401759, No Iterations 1
GAMG:  Solving for p, Initial residual = 0.00196767, Final residual = 0.000101337, No Iterations 2
GAMG:  Solving for p, Initial residual = 0.00137091, Final residual = 0.00011779, No Iterations 1
GAMG:  Solving for p, Initial residual = 0.000758881, Final residual = 4.93744e-05, No Iterations 2
time step continuity errors : sum local = 2.86169e+08, global = -4.8569e+07, cumulative = -2.40124e+09
ExecutionTime = 122.68 s  ClockTime = 123 s

Time = 1999

smoothSolver:  Solving for Ux, Initial residual = 0.0115311, Final residual = 6.05064e-06, No Iterations 2
smoothSolver:  Solving for Uy, Initial residual = 0.0118525, Final residual = 6.27889e-06, No Iterations 2
smoothSolver:  Solving for Uz, Initial residual = 0.0115715, Final residual = 4.51654e-06, No Iterations 2
GAMG:  Solving for p, Initial residual = 0.0122717, Final residual = 0.000879212, No Iterations 1
GAMG:  Solving for p, Initial residual = 0.00424361, Final residual = 0.000408636, No Iterations 1
GAMG:  Solving for p, Initial residual = 0.00199032, Final residual = 0.000105278, No Iterations 2
GAMG:  Solving for p, Initial residual = 0.00138895, Final residual = 0.000120428, No Iterations 1
GAMG:  Solving for p, Initial residual = 0.000770454, Final residual = 5.08529e-05, No Iterations 2
time step continuity errors : sum local = 2.96168e+08, global = -5.0016e+07, cumulative = -2.45125e+09
ExecutionTime = 122.74 s  ClockTime = 123 s

Time = 2000

smoothSolver:  Solving for Ux, Initial residual = 0.0115414, Final residual = 6.09544e-06, No Iterations 2
smoothSolver:  Solving for Uy, Initial residual = 0.0118507, Final residual = 6.28947e-06, No Iterations 2
smoothSolver:  Solving for Uz, Initial residual = 0.0115566, Final residual = 4.50445e-06, No Iterations 2
GAMG:  Solving for p, Initial residual = 0.0119871, Final residual = 0.000852781, No Iterations 1
GAMG:  Solving for p, Initial residual = 0.00411474, Final residual = 0.000390061, No Iterations 1
GAMG:  Solving for p, Initial residual = 0.00192975, Final residual = 0.000102168, No Iterations 2
GAMG:  Solving for p, Initial residual = 0.00135917, Final residual = 0.000115651, No Iterations 1
GAMG:  Solving for p, Initial residual = 0.000755474, Final residual = 5.07866e-05, No Iterations 2
time step continuity errors : sum local = 3.09603e+08, global = -4.85554e+07, cumulative = -2.49981e+09
ExecutionTime = 122.93 s  ClockTime = 123 s

End

