/*---------------------------------------------------------------------------*\
| =========                 |                                                 |
| \\      /  F ield         | OpenFOAM: The Open Source CFD Toolbox           |
|  \\    /   O peration     | Version:  2506                                  |
|   \\  /    A nd           | Website:  www.openfoam.com                      |
|    \\/     M anipulation  |                                                 |
\*---------------------------------------------------------------------------*/
Build  : _615aae61-20250627 OPENFOAM=2506 version=2506
Arch   : "LSB;label=32;scalar=64"
Exec   : simpleFoam -noFunctionObjects -case /home/ubuntu/fan_CFD_dataset/cases/fan_8
Date   : Nov 07 2025
Time   : 15:25:38
Host   : ip-172-31-37-87
PID    : 181790
I/O    : uncollated
Case   : /home/ubuntu/fan_CFD_dataset/cases/fan_8
nProcs : 1
trapFpe: Floating point exception trapping enabled (FOAM_SIGFPE).
fileModificationChecking : Monitoring run-time modified files using timeStampMaster (fileModificationSkew 5, maxFileModificationPolls 20)
allowSystemOperations : Allowing user-supplied system call operations

// * * * * * * * * * * * * * * * * * * * * * * * * * * * * * * * * * * * * * //
Create time

Create mesh for time = 0


SIMPLE: convergence criteria
    field U	 tolerance 1e-05
    field p	 tolerance 0.0001

Reading field p

Reading field U

Reading/calculating face flux field phi

Selecting incompressible transport model Newtonian
Selecting turbulence model type laminar
Selecting laminar stress model Stokes
No MRF models present

No finite volume options present

Starting time loop

Time = 1

smoothSolver:  Solving for Ux, Initial residual = 1, Final residual = 0.000309614, No Iterations 2
smoothSolver:  Solving for Uy, Initial residual = 1, Final residual = 0.000339079, No Iterations 2
smoothSolver:  Solving for Uz, Initial residual = 1, Final residual = 0.000715719, No Iterations 2
GAMG:  Solving for p, Initial residual = 1, Final residual = 0.0706933, No Iterations 4
GAMG:  Solving for p, Initial residual = 0.177362, Final residual = 0.0127261, No Iterations 1
GAMG:  Solving for p, Initial residual = 0.0458376, Final residual = 0.001832, No Iterations 2
GAMG:  Solving for p, Initial residual = 0.029454, Final residual = 0.00222449, No Iterations 1
GAMG:  Solving for p, Initial residual = 0.0125562, Final residual = 0.000625645, No Iterations 2
time step continuity errors : sum local = 5.77528, global = -0.693583, cumulative = -0.693583
ExecutionTime = 0.36 s  ClockTime = 0 s

Time = 2

smoothSolver:  Solving for Ux, Initial residual = 0.0868535, Final residual = 3.39417e-05, No Iterations 2
smoothSolver:  Solving for Uy, Initial residual = 0.086244, Final residual = 3.41875e-05, No Iterations 2
smoothSolver:  Solving for Uz, Initial residual = 0.187779, Final residual = 6.27834e-05, No Iterations 2
GAMG:  Solving for p, Initial residual = 0.407588, Final residual = 0.0352309, No Iterations 4
GAMG:  Solving for p, Initial residual = 0.172726, Final residual = 0.0125457, No Iterations 1
GAMG:  Solving for p, Initial residual = 0.051571, Final residual = 0.0022175, No Iterations 2
GAMG:  Solving for p, Initial residual = 0.0366959, Final residual = 0.00284433, No Iterations 1
GAMG:  Solving for p, Initial residual = 0.0175284, Final residual = 0.000881402, No Iterations 2
time step continuity errors : sum local = 7.85667, global = -0.485402, cumulative = -1.17899
ExecutionTime = 0.47 s  ClockTime = 0 s

Time = 3

smoothSolver:  Solving for Ux, Initial residual = 0.198292, Final residual = 8.74424e-05, No Iterations 2
smoothSolver:  Solving for Uy, Initial residual = 0.197314, Final residual = 8.71131e-05, No Iterations 2
smoothSolver:  Solving for Uz, Initial residual = 0.581577, Final residual = 0.000212032, No Iterations 2
GAMG:  Solving for p, Initial residual = 0.103013, Final residual = 0.00846633, No Iterations 3
GAMG:  Solving for p, Initial residual = 0.119865, Final residual = 0.00867603, No Iterations 1
GAMG:  Solving for p, Initial residual = 0.0361258, Final residual = 0.00163316, No Iterations 2
GAMG:  Solving for p, Initial residual = 0.0274323, Final residual = 0.00212931, No Iterations 1
GAMG:  Solving for p, Initial residual = 0.012524, Final residual = 0.000624534, No Iterations 2
time step continuity errors : sum local = 3.68242, global = -0.253944, cumulative = -1.43293
ExecutionTime = 0.59 s  ClockTime = 0 s

Time = 4

smoothSolver:  Solving for Ux, Initial residual = 0.175421, Final residual = 7.56376e-05, No Iterations 2
smoothSolver:  Solving for Uy, Initial residual = 0.174175, Final residual = 7.55544e-05, No Iterations 2
smoothSolver:  Solving for Uz, Initial residual = 0.592173, Final residual = 0.000218853, No Iterations 2
GAMG:  Solving for p, Initial residual = 0.0663375, Final residual = 0.00493782, No Iterations 1
GAMG:  Solving for p, Initial residual = 0.0228508, Final residual = 0.00116528, No Iterations 2
GAMG:  Solving for p, Initial residual = 0.0207005, Final residual = 0.00157762, No Iterations 1
GAMG:  Solving for p, Initial residual = 0.00937698, Final residual = 0.00047563, No Iterations 2
GAMG:  Solving for p, Initial residual = 0.00871832, Final residual = 0.000708022, No Iterations 1
time step continuity errors : sum local = 2.51588, global = -0.536891, cumulative = -1.96982
ExecutionTime = 0.7 s  ClockTime = 0 s

Time = 5

smoothSolver:  Solving for Ux, Initial residual = 0.130029, Final residual = 5.44457e-05, No Iterations 2
smoothSolver:  Solving for Uy, Initial residual = 0.128318, Final residual = 5.43878e-05, No Iterations 2
smoothSolver:  Solving for Uz, Initial residual = 0.540667, Final residual = 0.000194554, No Iterations 2
GAMG:  Solving for p, Initial residual = 0.0696674, Final residual = 0.00559134, No Iterations 2
GAMG:  Solving for p, Initial residual = 0.138917, Final residual = 0.00976325, No Iterations 1
GAMG:  Solving for p, Initial residual = 0.0703188, Final residual = 0.0035886, No Iterations 2
GAMG:  Solving for p, Initial residual = 0.0976319, Final residual = 0.00712515, No Iterations 1
GAMG:  Solving for p, Initial residual = 0.0470158, Final residual = 0.00231836, No Iterations 2
time step continuity errors : sum local = 2.08734, global = 0.183121, cumulative = -1.7867
ExecutionTime = 0.81 s  ClockTime = 1 s

Time = 6

smoothSolver:  Solving for Ux, Initial residual = 0.0898266, Final residual = 3.75515e-05, No Iterations 2
smoothSolver:  Solving for Uy, Initial residual = 0.0881757, Final residual = 3.6935e-05, No Iterations 2
smoothSolver:  Solving for Uz, Initial residual = 0.41718, Final residual = 0.000149839, No Iterations 2
GAMG:  Solving for p, Initial residual = 0.0810906, Final residual = 0.00712715, No Iterations 3
GAMG:  Solving for p, Initial residual = 0.297211, Final residual = 0.021416, No Iterations 1
GAMG:  Solving for p, Initial residual = 0.114493, Final residual = 0.00539386, No Iterations 2
GAMG:  Solving for p, Initial residual = 0.0812864, Final residual = 0.00622278, No Iterations 1
GAMG:  Solving for p, Initial residual = 0.0359896, Final residual = 0.00181406, No Iterations 2
time step continuity errors : sum local = 3.74528, global = 0.260401, cumulative = -1.5263
ExecutionTime = 0.93 s  ClockTime = 1 s

Time = 7

smoothSolver:  Solving for Ux, Initial residual = 0.0623419, Final residual = 2.76349e-05, No Iterations 2
smoothSolver:  Solving for Uy, Initial residual = 0.0609439, Final residual = 2.71199e-05, No Iterations 2
smoothSolver:  Solving for Uz, Initial residual = 0.247449, Final residual = 9.33596e-05, No Iterations 2
GAMG:  Solving for p, Initial residual = 0.108292, Final residual = 0.00482095, No Iterations 4
GAMG:  Solving for p, Initial residual = 0.238858, Final residual = 0.017464, No Iterations 1
GAMG:  Solving for p, Initial residual = 0.0801709, Final residual = 0.00349855, No Iterations 2
GAMG:  Solving for p, Initial residual = 0.054065, Final residual = 0.00424005, No Iterations 1
GAMG:  Solving for p, Initial residual = 0.0246174, Final residual = 0.00126412, No Iterations 2
time step continuity errors : sum local = 4.33907, global = 0.304544, cumulative = -1.22175
ExecutionTime = 1.04 s  ClockTime = 1 s

Time = 8

smoothSolver:  Solving for Ux, Initial residual = 0.0543551, Final residual = 2.56013e-05, No Iterations 2
smoothSolver:  Solving for Uy, Initial residual = 0.0536117, Final residual = 2.53253e-05, No Iterations 2
smoothSolver:  Solving for Uz, Initial residual = 0.0922897, Final residual = 4.31558e-05, No Iterations 2
GAMG:  Solving for p, Initial residual = 0.245437, Final residual = 0.0235598, No Iterations 3
GAMG:  Solving for p, Initial residual = 0.195594, Final residual = 0.0143592, No Iterations 1
GAMG:  Solving for p, Initial residual = 0.0613047, Final residual = 0.00290605, No Iterations 2
GAMG:  Solving for p, Initial residual = 0.0451485, Final residual = 0.00357917, No Iterations 1
GAMG:  Solving for p, Initial residual = 0.0207421, Final residual = 0.00108509, No Iterations 2
time step continuity errors : sum local = 4.1465, global = 0.265378, cumulative = -0.956376
ExecutionTime = 1.16 s  ClockTime = 1 s

Time = 9

smoothSolver:  Solving for Ux, Initial residual = 0.0635609, Final residual = 3.00977e-05, No Iterations 2
smoothSolver:  Solving for Uy, Initial residual = 0.0643726, Final residual = 3.04717e-05, No Iterations 2
smoothSolver:  Solving for Uz, Initial residual = 0.141769, Final residual = 5.71983e-05, No Iterations 2
GAMG:  Solving for p, Initial residual = 0.217929, Final residual = 0.0209217, No Iterations 2
GAMG:  Solving for p, Initial residual = 0.141154, Final residual = 0.0103063, No Iterations 1
GAMG:  Solving for p, Initial residual = 0.0494461, Final residual = 0.00255775, No Iterations 2
GAMG:  Solving for p, Initial residual = 0.0406974, Final residual = 0.00319429, No Iterations 1
GAMG:  Solving for p, Initial residual = 0.018529, Final residual = 0.000971128, No Iterations 2
time step continuity errors : sum local = 3.19682, global = 0.187198, cumulative = -0.769179
ExecutionTime = 1.28 s  ClockTime = 1 s

Time = 10

smoothSolver:  Solving for Ux, Initial residual = 0.0749918, Final residual = 3.46701e-05, No Iterations 2
smoothSolver:  Solving for Uy, Initial residual = 0.076926, Final residual = 3.54164e-05, No Iterations 2
smoothSolver:  Solving for Uz, Initial residual = 0.288355, Final residual = 0.000102054, No Iterations 2
GAMG:  Solving for p, Initial residual = 0.151211, Final residual = 0.0140936, No Iterations 1
GAMG:  Solving for p, Initial residual = 0.0646108, Final residual = 0.00349041, No Iterations 2
GAMG:  Solving for p, Initial residual = 0.0502707, Final residual = 0.00395302, No Iterations 1
GAMG:  Solving for p, Initial residual = 0.022283, Final residual = 0.00118807, No Iterations 2
GAMG:  Solving for p, Initial residual = 0.0201792, Final residual = 0.00168393, No Iterations 1
time step continuity errors : sum local = 3.75924, global = 0.81406, cumulative = 0.0448815
ExecutionTime = 1.38 s  ClockTime = 1 s

Time = 11

smoothSolver:  Solving for Ux, Initial residual = 0.0800546, Final residual = 3.69423e-05, No Iterations 2
smoothSolver:  Solving for Uy, Initial residual = 0.0819082, Final residual = 3.77319e-05, No Iterations 2
smoothSolver:  Solving for Uz, Initial residual = 0.370105, Final residual = 0.00012867, No Iterations 2
GAMG:  Solving for p, Initial residual = 0.131761, Final residual = 0.0117303, No Iterations 1
GAMG:  Solving for p, Initial residual = 0.0604698, Final residual = 0.00324953, No Iterations 2
GAMG:  Solving for p, Initial residual = 0.0485933, Final residual = 0.0032661, No Iterations 1
GAMG:  Solving for p, Initial residual = 0.0196085, Final residual = 0.000906937, No Iterations 2
GAMG:  Solving for p, Initial residual = 0.0177071, Final residual = 0.0012535, No Iterations 1
time step continuity errors : sum local = 1.30188, global = -0.229586, cumulative = -0.184705
ExecutionTime = 1.49 s  ClockTime = 1 s

Time = 12

smoothSolver:  Solving for Ux, Initial residual = 0.079846, Final residual = 3.70427e-05, No Iterations 2
smoothSolver:  Solving for Uy, Initial residual = 0.0805853, Final residual = 3.7528e-05, No Iterations 2
smoothSolver:  Solving for Uz, Initial residual = 0.372809, Final residual = 0.000130367, No Iterations 2
GAMG:  Solving for p, Initial residual = 0.130427, Final residual = 0.00868183, No Iterations 2
GAMG:  Solving for p, Initial residual = 0.315138, Final residual = 0.0216045, No Iterations 1
GAMG:  Solving for p, Initial residual = 0.12513, Final residual = 0.00629148, No Iterations 2
GAMG:  Solving for p, Initial residual = 0.0909823, Final residual = 0.00656336, No Iterations 1
GAMG:  Solving for p, Initial residual = 0.0384938, Final residual = 0.00187441, No Iterations 2
time step continuity errors : sum local = 1.4257, global = -0.13465, cumulative = -0.319355
ExecutionTime = 1.59 s  ClockTime = 1 s

Time = 13

smoothSolver:  Solving for Ux, Initial residual = 0.0749098, Final residual = 3.5487e-05, No Iterations 2
smoothSolver:  Solving for Uy, Initial residual = 0.0747872, Final residual = 3.54663e-05, No Iterations 2
smoothSolver:  Solving for Uz, Initial residual = 0.277119, Final residual = 9.78095e-05, No Iterations 2
GAMG:  Solving for p, Initial residual = 0.146755, Final residual = 0.0138454, No Iterations 2
GAMG:  Solving for p, Initial residual = 0.251146, Final residual = 0.0176037, No Iterations 1
GAMG:  Solving for p, Initial residual = 0.0951168, Final residual = 0.00480125, No Iterations 2
GAMG:  Solving for p, Initial residual = 0.0704495, Final residual = 0.00522903, No Iterations 1
GAMG:  Solving for p, Initial residual = 0.029499, Final residual = 0.00146226, No Iterations 2
time step continuity errors : sum local = 2.08333, global = -0.166544, cumulative = -0.485899
ExecutionTime = 1.71 s  ClockTime = 1 s

Time = 14

smoothSolver:  Solving for Ux, Initial residual = 0.0689437, Final residual = 3.31911e-05, No Iterations 2
smoothSolver:  Solving for Uy, Initial residual = 0.0689624, Final residual = 3.31352e-05, No Iterations 2
smoothSolver:  Solving for Uz, Initial residual = 0.132234, Final residual = 5.31036e-05, No Iterations 2
GAMG:  Solving for p, Initial residual = 0.215124, Final residual = 0.0143472, No Iterations 3
GAMG:  Solving for p, Initial residual = 0.203965, Final residual = 0.0150213, No Iterations 1
GAMG:  Solving for p, Initial residual = 0.0667505, Final residual = 0.00314422, No Iterations 2
GAMG:  Solving for p, Initial residual = 0.0489361, Final residual = 0.00383211, No Iterations 1
GAMG:  Solving for p, Initial residual = 0.0221169, Final residual = 0.00112552, No Iterations 2
time step continuity errors : sum local = 2.06652, global = -0.141232, cumulative = -0.627131
ExecutionTime = 1.82 s  ClockTime = 2 s

Time = 15

smoothSolver:  Solving for Ux, Initial residual = 0.0638623, Final residual = 3.11524e-05, No Iterations 2
smoothSolver:  Solving for Uy, Initial residual = 0.0647159, Final residual = 3.15134e-05, No Iterations 2
smoothSolver:  Solving for Uz, Initial residual = 0.0799408, Final residual = 3.74121e-05, No Iterations 2
GAMG:  Solving for p, Initial residual = 0.337739, Final residual = 0.0323552, No Iterations 2
GAMG:  Solving for p, Initial residual = 0.162506, Final residual = 0.0120606, No Iterations 1
GAMG:  Solving for p, Initial residual = 0.0574216, Final residual = 0.0030007, No Iterations 2
GAMG:  Solving for p, Initial residual = 0.0465552, Final residual = 0.00363969, No Iterations 1
GAMG:  Solving for p, Initial residual = 0.0207821, Final residual = 0.00107138, No Iterations 2
time step continuity errors : sum local = 1.87834, global = -0.116701, cumulative = -0.743832
ExecutionTime = 1.93 s  ClockTime = 2 s

Time = 16

smoothSolver:  Solving for Ux, Initial residual = 0.0590825, Final residual = 2.90854e-05, No Iterations 2
smoothSolver:  Solving for Uy, Initial residual = 0.0601539, Final residual = 2.94548e-05, No Iterations 2
smoothSolver:  Solving for Uz, Initial residual = 0.159893, Final residual = 5.8116e-05, No Iterations 2
GAMG:  Solving for p, Initial residual = 0.185278, Final residual = 0.0124761, No Iterations 2
GAMG:  Solving for p, Initial residual = 0.108304, Final residual = 0.00875221, No Iterations 1
GAMG:  Solving for p, Initial residual = 0.0427579, Final residual = 0.00238269, No Iterations 2
GAMG:  Solving for p, Initial residual = 0.0377884, Final residual = 0.00307979, No Iterations 1
GAMG:  Solving for p, Initial residual = 0.0177785, Final residual = 0.000946689, No Iterations 2
time step continuity errors : sum local = 1.28624, global = -0.0639188, cumulative = -0.807751
ExecutionTime = 2.05 s  ClockTime = 2 s

Time = 17

smoothSolver:  Solving for Ux, Initial residual = 0.0525618, Final residual = 2.58841e-05, No Iterations 2
smoothSolver:  Solving for Uy, Initial residual = 0.0531526, Final residual = 2.60674e-05, No Iterations 2
smoothSolver:  Solving for Uz, Initial residual = 0.20908, Final residual = 7.23103e-05, No Iterations 2
GAMG:  Solving for p, Initial residual = 0.143587, Final residual = 0.00544069, No Iterations 2
GAMG:  Solving for p, Initial residual = 0.0702559, Final residual = 0.00662263, No Iterations 1
GAMG:  Solving for p, Initial residual = 0.0319822, Final residual = 0.00151681, No Iterations 2
GAMG:  Solving for p, Initial residual = 0.024115, Final residual = 0.00234446, No Iterations 1
GAMG:  Solving for p, Initial residual = 0.0134554, Final residual = 0.000668248, No Iterations 2
time step continuity errors : sum local = 0.53994, global = -0.0409953, cumulative = -0.848746
ExecutionTime = 2.15 s  ClockTime = 2 s

Time = 18

smoothSolver:  Solving for Ux, Initial residual = 0.0452733, Final residual = 2.23255e-05, No Iterations 2
smoothSolver:  Solving for Uy, Initial residual = 0.0452338, Final residual = 2.21475e-05, No Iterations 2
smoothSolver:  Solving for Uz, Initial residual = 0.200865, Final residual = 6.79676e-05, No Iterations 2
GAMG:  Solving for p, Initial residual = 0.133054, Final residual = 0.00717956, No Iterations 2
GAMG:  Solving for p, Initial residual = 0.167831, Final residual = 0.0111325, No Iterations 1
GAMG:  Solving for p, Initial residual = 0.071026, Final residual = 0.00335692, No Iterations 2
GAMG:  Solving for p, Initial residual = 0.0805259, Final residual = 0.00549094, No Iterations 1
GAMG:  Solving for p, Initial residual = 0.0341765, Final residual = 0.00155985, No Iterations 2
time step continuity errors : sum local = 0.442952, global = 0.0405693, cumulative = -0.808177
ExecutionTime = 2.27 s  ClockTime = 2 s

Time = 19

smoothSolver:  Solving for Ux, Initial residual = 0.0400772, Final residual = 1.98605e-05, No Iterations 2
smoothSolver:  Solving for Uy, Initial residual = 0.0393915, Final residual = 1.91803e-05, No Iterations 2
smoothSolver:  Solving for Uz, Initial residual = 0.155222, Final residual = 5.25806e-05, No Iterations 2
GAMG:  Solving for p, Initial residual = 0.136049, Final residual = 0.0107452, No Iterations 2
GAMG:  Solving for p, Initial residual = 0.250042, Final residual = 0.0171939, No Iterations 1
GAMG:  Solving for p, Initial residual = 0.0941471, Final residual = 0.00471395, No Iterations 2
GAMG:  Solving for p, Initial residual = 0.0704176, Final residual = 0.00506585, No Iterations 1
GAMG:  Solving for p, Initial residual = 0.0291054, Final residual = 0.0014248, No Iterations 2
time step continuity errors : sum local = 0.806329, global = 0.0754294, cumulative = -0.732747
ExecutionTime = 2.37 s  ClockTime = 2 s

Time = 20

smoothSolver:  Solving for Ux, Initial residual = 0.037691, Final residual = 1.84648e-05, No Iterations 2
smoothSolver:  Solving for Uy, Initial residual = 0.0369358, Final residual = 1.7901e-05, No Iterations 2
smoothSolver:  Solving for Uz, Initial residual = 0.0919727, Final residual = 3.35944e-05, No Iterations 2
GAMG:  Solving for p, Initial residual = 0.162429, Final residual = 0.0160347, No Iterations 2
GAMG:  Solving for p, Initial residual = 0.210757, Final residual = 0.0148905, No Iterations 1
GAMG:  Solving for p, Initial residual = 0.0784672, Final residual = 0.00398126, No Iterations 2
GAMG:  Solving for p, Initial residual = 0.0601251, Final residual = 0.00448817, No Iterations 1
GAMG:  Solving for p, Initial residual = 0.0253976, Final residual = 0.00127231, No Iterations 2
time step continuity errors : sum local = 1.01186, global = 0.0822664, cumulative = -0.650481
ExecutionTime = 2.49 s  ClockTime = 2 s

Time = 21

smoothSolver:  Solving for Ux, Initial residual = 0.0373366, Final residual = 1.78071e-05, No Iterations 2
smoothSolver:  Solving for Uy, Initial residual = 0.0368632, Final residual = 1.74185e-05, No Iterations 2
smoothSolver:  Solving for Uz, Initial residual = 0.0439562, Final residual = 1.98193e-05, No Iterations 2
GAMG:  Solving for p, Initial residual = 0.281672, Final residual = 0.0276942, No Iterations 2
GAMG:  Solving for p, Initial residual = 0.175046, Final residual = 0.0128097, No Iterations 1
GAMG:  Solving for p, Initial residual = 0.0637675, Final residual = 0.00332047, No Iterations 2
GAMG:  Solving for p, Initial residual = 0.0509991, Final residual = 0.00394505, No Iterations 1
GAMG:  Solving for p, Initial residual = 0.0223523, Final residual = 0.00114908, No Iterations 2
time step continuity errors : sum local = 0.994371, global = 0.0696542, cumulative = -0.580827
ExecutionTime = 2.6 s  ClockTime = 2 s

Time = 22

smoothSolver:  Solving for Ux, Initial residual = 0.0371249, Final residual = 1.74183e-05, No Iterations 2
smoothSolver:  Solving for Uy, Initial residual = 0.0369563, Final residual = 1.71631e-05, No Iterations 2
smoothSolver:  Solving for Uz, Initial residual = 0.0540518, Final residual = 2.23613e-05, No Iterations 2
GAMG:  Solving for p, Initial residual = 0.230668, Final residual = 0.0179814, No Iterations 2
GAMG:  Solving for p, Initial residual = 0.134068, Final residual = 0.0105534, No Iterations 1
GAMG:  Solving for p, Initial residual = 0.0509587, Final residual = 0.00280377, No Iterations 2
GAMG:  Solving for p, Initial residual = 0.0435777, Final residual = 0.00352401, No Iterations 1
GAMG:  Solving for p, Initial residual = 0.0200481, Final residual = 0.00106553, No Iterations 2
time step continuity errors : sum local = 0.809159, global = 0.0464834, cumulative = -0.534343
ExecutionTime = 2.71 s  ClockTime = 2 s

Time = 23

smoothSolver:  Solving for Ux, Initial residual = 0.0358722, Final residual = 1.67479e-05, No Iterations 2
smoothSolver:  Solving for Uy, Initial residual = 0.035786, Final residual = 1.65991e-05, No Iterations 2
smoothSolver:  Solving for Uz, Initial residual = 0.0874961, Final residual = 3.12196e-05, No Iterations 2
GAMG:  Solving for p, Initial residual = 0.168246, Final residual = 0.00869478, No Iterations 2
GAMG:  Solving for p, Initial residual = 0.0925647, Final residual = 0.00829653, No Iterations 1
GAMG:  Solving for p, Initial residual = 0.0421876, Final residual = 0.00249011, No Iterations 2
GAMG:  Solving for p, Initial residual = 0.0374511, Final residual = 0.00321472, No Iterations 1
GAMG:  Solving for p, Initial residual = 0.0182865, Final residual = 0.0010285, No Iterations 2
time step continuity errors : sum local = 0.545551, global = 0.0254652, cumulative = -0.508878
ExecutionTime = 2.81 s  ClockTime = 3 s

Time = 24

smoothSolver:  Solving for Ux, Initial residual = 0.0337001, Final residual = 1.55615e-05, No Iterations 2
smoothSolver:  Solving for Uy, Initial residual = 0.0335515, Final residual = 1.55867e-05, No Iterations 2
smoothSolver:  Solving for Uz, Initial residual = 0.104488, Final residual = 3.54561e-05, No Iterations 2
GAMG:  Solving for p, Initial residual = 0.146446, Final residual = 0.00630225, No Iterations 2
GAMG:  Solving for p, Initial residual = 0.105071, Final residual = 0.00825884, No Iterations 1
GAMG:  Solving for p, Initial residual = 0.0422804, Final residual = 0.00196578, No Iterations 2
GAMG:  Solving for p, Initial residual = 0.0335394, Final residual = 0.002823, No Iterations 1
GAMG:  Solving for p, Initial residual = 0.0167327, Final residual = 0.000745851, No Iterations 2
time step continuity errors : sum local = 0.224198, global = -0.0326884, cumulative = -0.541566
ExecutionTime = 2.92 s  ClockTime = 3 s

Time = 25

smoothSolver:  Solving for Ux, Initial residual = 0.0317635, Final residual = 1.46097e-05, No Iterations 2
smoothSolver:  Solving for Uy, Initial residual = 0.0315534, Final residual = 1.45114e-05, No Iterations 2
smoothSolver:  Solving for Uz, Initial residual = 0.0980747, Final residual = 3.29927e-05, No Iterations 2
GAMG:  Solving for p, Initial residual = 0.139337, Final residual = 0.00872163, No Iterations 2
GAMG:  Solving for p, Initial residual = 0.262852, Final residual = 0.0175427, No Iterations 1
GAMG:  Solving for p, Initial residual = 0.0942931, Final residual = 0.00455452, No Iterations 2
GAMG:  Solving for p, Initial residual = 0.0660161, Final residual = 0.0045434, No Iterations 1
GAMG:  Solving for p, Initial residual = 0.0268045, Final residual = 0.0012671, No Iterations 2
time step continuity errors : sum local = 0.279011, global = -0.0262048, cumulative = -0.567771
ExecutionTime = 3.03 s  ClockTime = 3 s

Time = 26

smoothSolver:  Solving for Ux, Initial residual = 0.0304441, Final residual = 1.39703e-05, No Iterations 2
smoothSolver:  Solving for Uy, Initial residual = 0.0302718, Final residual = 1.38416e-05, No Iterations 2
smoothSolver:  Solving for Uz, Initial residual = 0.0709382, Final residual = 2.47331e-05, No Iterations 2
GAMG:  Solving for p, Initial residual = 0.148018, Final residual = 0.0120462, No Iterations 2
GAMG:  Solving for p, Initial residual = 0.209619, Final residual = 0.0144298, No Iterations 1
GAMG:  Solving for p, Initial residual = 0.0752889, Final residual = 0.0037858, No Iterations 2
GAMG:  Solving for p, Initial residual = 0.0576063, Final residual = 0.00414297, No Iterations 1
GAMG:  Solving for p, Initial residual = 0.0236879, Final residual = 0.00117062, No Iterations 2
time step continuity errors : sum local = 0.406422, global = -0.0378775, cumulative = -0.605649
ExecutionTime = 3.14 s  ClockTime = 3 s

Time = 27

smoothSolver:  Solving for Ux, Initial residual = 0.0293331, Final residual = 1.35762e-05, No Iterations 2
smoothSolver:  Solving for Uy, Initial residual = 0.0292147, Final residual = 1.34815e-05, No Iterations 2
smoothSolver:  Solving for Uz, Initial residual = 0.039731, Final residual = 1.57869e-05, No Iterations 2
GAMG:  Solving for p, Initial residual = 0.18838, Final residual = 0.0171165, No Iterations 2
GAMG:  Solving for p, Initial residual = 0.176725, Final residual = 0.0125343, No Iterations 1
GAMG:  Solving for p, Initial residual = 0.0638995, Final residual = 0.00326855, No Iterations 2
GAMG:  Solving for p, Initial residual = 0.0508054, Final residual = 0.00379695, No Iterations 1
GAMG:  Solving for p, Initial residual = 0.0216445, Final residual = 0.00109226, No Iterations 2
time step continuity errors : sum local = 0.46128, global = -0.0367004, cumulative = -0.642349
ExecutionTime = 3.25 s  ClockTime = 3 s

Time = 28

smoothSolver:  Solving for Ux, Initial residual = 0.0278684, Final residual = 1.3038e-05, No Iterations 2
smoothSolver:  Solving for Uy, Initial residual = 0.0277443, Final residual = 1.28485e-05, No Iterations 2
smoothSolver:  Solving for Uz, Initial residual = 0.029336, Final residual = 1.2808e-05, No Iterations 2
GAMG:  Solving for p, Initial residual = 0.28086, Final residual = 0.0227405, No Iterations 2
GAMG:  Solving for p, Initial residual = 0.144268, Final residual = 0.0108025, No Iterations 1
GAMG:  Solving for p, Initial residual = 0.0530434, Final residual = 0.00282295, No Iterations 2
GAMG:  Solving for p, Initial residual = 0.0443931, Final residual = 0.00346645, No Iterations 1
GAMG:  Solving for p, Initial residual = 0.0197498, Final residual = 0.00102346, No Iterations 2
time step continuity errors : sum local = 0.429685, global = -0.0288255, cumulative = -0.671175
ExecutionTime = 3.36 s  ClockTime = 3 s

Time = 29

smoothSolver:  Solving for Ux, Initial residual = 0.0258196, Final residual = 1.22608e-05, No Iterations 2
smoothSolver:  Solving for Uy, Initial residual = 0.025639, Final residual = 1.20994e-05, No Iterations 2
smoothSolver:  Solving for Uz, Initial residual = 0.0397397, Final residual = 1.5302e-05, No Iterations 2
GAMG:  Solving for p, Initial residual = 0.187145, Final residual = 0.0124055, No Iterations 2
GAMG:  Solving for p, Initial residual = 0.107554, Final residual = 0.0089601, No Iterations 1
GAMG:  Solving for p, Initial residual = 0.0439127, Final residual = 0.00253767, No Iterations 2
GAMG:  Solving for p, Initial residual = 0.0396296, Final residual = 0.00324002, No Iterations 1
GAMG:  Solving for p, Initial residual = 0.0184018, Final residual = 0.000989787, No Iterations 2
time step continuity errors : sum local = 0.343353, global = -0.0189304, cumulative = -0.690105
ExecutionTime = 3.47 s  ClockTime = 3 s

Time = 30

smoothSolver:  Solving for Ux, Initial residual = 0.0234949, Final residual = 1.13491e-05, No Iterations 2
smoothSolver:  Solving for Uy, Initial residual = 0.023112, Final residual = 1.11582e-05, No Iterations 2
smoothSolver:  Solving for Uz, Initial residual = 0.0497834, Final residual = 1.76147e-05, No Iterations 2
GAMG:  Solving for p, Initial residual = 0.153448, Final residual = 0.0072902, No Iterations 2
GAMG:  Solving for p, Initial residual = 0.0870573, Final residual = 0.00843292, No Iterations 1
GAMG:  Solving for p, Initial residual = 0.0393657, Final residual = 0.00195704, No Iterations 2
GAMG:  Solving for p, Initial residual = 0.0311458, Final residual = 0.00290323, No Iterations 1
GAMG:  Solving for p, Initial residual = 0.0165315, Final residual = 0.000912182, No Iterations 2
time step continuity errors : sum local = 0.214458, global = -0.0114718, cumulative = -0.701577
ExecutionTime = 3.57 s  ClockTime = 3 s

Time = 31

smoothSolver:  Solving for Ux, Initial residual = 0.0214267, Final residual = 1.04416e-05, No Iterations 2
smoothSolver:  Solving for Uy, Initial residual = 0.0208279, Final residual = 1.02251e-05, No Iterations 2
smoothSolver:  Solving for Uz, Initial residual = 0.050431, Final residual = 1.74073e-05, No Iterations 2
GAMG:  Solving for p, Initial residual = 0.140094, Final residual = 0.00676293, No Iterations 2
GAMG:  Solving for p, Initial residual = 0.127864, Final residual = 0.0093149, No Iterations 1
GAMG:  Solving for p, Initial residual = 0.0492515, Final residual = 0.00236444, No Iterations 2
GAMG:  Solving for p, Initial residual = 0.0423724, Final residual = 0.00326577, No Iterations 1
GAMG:  Solving for p, Initial residual = 0.0196787, Final residual = 0.000936292, No Iterations 2
time step continuity errors : sum local = 0.123935, global = 0.0114573, cumulative = -0.69012
ExecutionTime = 3.69 s  ClockTime = 3 s

Time = 32

smoothSolver:  Solving for Ux, Initial residual = 0.0201598, Final residual = 9.69957e-06, No Iterations 2
smoothSolver:  Solving for Uy, Initial residual = 0.0194769, Final residual = 9.492e-06, No Iterations 2
smoothSolver:  Solving for Uz, Initial residual = 0.0424855, Final residual = 1.4832e-05, No Iterations 2
GAMG:  Solving for p, Initial residual = 0.136711, Final residual = 0.00850723, No Iterations 2
GAMG:  Solving for p, Initial residual = 0.187606, Final residual = 0.0125471, No Iterations 1
GAMG:  Solving for p, Initial residual = 0.0658804, Final residual = 0.00320365, No Iterations 2
GAMG:  Solving for p, Initial residual = 0.0491615, Final residual = 0.00342668, No Iterations 1
GAMG:  Solving for p, Initial residual = 0.0202056, Final residual = 0.000968052, No Iterations 2
time step continuity errors : sum local = 0.149775, global = 0.0137568, cumulative = -0.676363
ExecutionTime = 3.79 s  ClockTime = 3 s

Time = 33

smoothSolver:  Solving for Ux, Initial residual = 0.0196368, Final residual = 9.29268e-06, No Iterations 2
smoothSolver:  Solving for Uy, Initial residual = 0.0190394, Final residual = 9.07148e-06, No Iterations 2
smoothSolver:  Solving for Uz, Initial residual = 0.029639, Final residual = 1.1157e-05, No Iterations 2
GAMG:  Solving for p, Initial residual = 0.147463, Final residual = 0.0107494, No Iterations 2
GAMG:  Solving for p, Initial residual = 0.15789, Final residual = 0.0108235, No Iterations 1
GAMG:  Solving for p, Initial residual = 0.0572372, Final residual = 0.00287849, No Iterations 2
GAMG:  Solving for p, Initial residual = 0.0459185, Final residual = 0.00331252, No Iterations 1
GAMG:  Solving for p, Initial residual = 0.0192163, Final residual = 0.000958124, No Iterations 2
time step continuity errors : sum local = 0.192994, global = 0.0175948, cumulative = -0.658768
ExecutionTime = 3.9 s  ClockTime = 4 s

Time = 34

smoothSolver:  Solving for Ux, Initial residual = 0.0193817, Final residual = 9.05566e-06, No Iterations 2
smoothSolver:  Solving for Uy, Initial residual = 0.0189195, Final residual = 8.77744e-06, No Iterations 2
smoothSolver:  Solving for Uz, Initial residual = 0.0199796, Final residual = 8.46162e-06, No Iterations 2
GAMG:  Solving for p, Initial residual = 0.185517, Final residual = 0.013609, No Iterations 2
GAMG:  Solving for p, Initial residual = 0.13531, Final residual = 0.00963263, No Iterations 1
GAMG:  Solving for p, Initial residual = 0.0503323, Final residual = 0.00259894, No Iterations 2
GAMG:  Solving for p, Initial residual = 0.0422529, Final residual = 0.00318059, No Iterations 1
GAMG:  Solving for p, Initial residual = 0.0184534, Final residual = 0.000938231, No Iterations 2
time step continuity errors : sum local = 0.205232, global = 0.016281, cumulative = -0.642487
ExecutionTime = 4 s  ClockTime = 4 s

Time = 35

smoothSolver:  Solving for Ux, Initial residual = 0.0189997, Final residual = 8.78216e-06, No Iterations 2
smoothSolver:  Solving for Uy, Initial residual = 0.0186856, Final residual = 8.51602e-06, No Iterations 2
smoothSolver:  Solving for Uz, Initial residual = 0.0184035, Final residual = 7.80245e-06, No Iterations 2
GAMG:  Solving for p, Initial residual = 0.194561, Final residual = 0.0126522, No Iterations 2
GAMG:  Solving for p, Initial residual = 0.110219, Final residual = 0.00847528, No Iterations 1
GAMG:  Solving for p, Initial residual = 0.0429515, Final residual = 0.00235046, No Iterations 2
GAMG:  Solving for p, Initial residual = 0.0382803, Final residual = 0.00302742, No Iterations 1
GAMG:  Solving for p, Initial residual = 0.0175081, Final residual = 0.000916031, No Iterations 2
time step continuity errors : sum local = 0.186443, global = 0.0122305, cumulative = -0.630257
ExecutionTime = 4.12 s  ClockTime = 4 s

Time = 36

smoothSolver:  Solving for Ux, Initial residual = 0.0183853, Final residual = 8.40731e-06, No Iterations 2
smoothSolver:  Solving for Uy, Initial residual = 0.0181636, Final residual = 8.2086e-06, No Iterations 2
smoothSolver:  Solving for Uz, Initial residual = 0.0215899, Final residual = 8.35494e-06, No Iterations 2
GAMG:  Solving for p, Initial residual = 0.155473, Final residual = 0.00806489, No Iterations 2
GAMG:  Solving for p, Initial residual = 0.0865749, Final residual = 0.00741516, No Iterations 1
GAMG:  Solving for p, Initial residual = 0.0380586, Final residual = 0.00220038, No Iterations 2
GAMG:  Solving for p, Initial residual = 0.034816, Final residual = 0.00290822, No Iterations 1
GAMG:  Solving for p, Initial residual = 0.0166433, Final residual = 0.000911438, No Iterations 2
time step continuity errors : sum local = 0.148299, global = 0.00811463, cumulative = -0.622142
ExecutionTime = 4.23 s  ClockTime = 4 s

Time = 37

smoothSolver:  Solving for Ux, Initial residual = 0.0176575, Final residual = 7.9797e-06, No Iterations 2
smoothSolver:  Solving for Uy, Initial residual = 0.0174355, Final residual = 7.78217e-06, No Iterations 2
smoothSolver:  Solving for Uz, Initial residual = 0.023983, Final residual = 8.68607e-06, No Iterations 2
GAMG:  Solving for p, Initial residual = 0.138604, Final residual = 0.00601493, No Iterations 2
GAMG:  Solving for p, Initial residual = 0.0800355, Final residual = 0.00739135, No Iterations 1
GAMG:  Solving for p, Initial residual = 0.0352877, Final residual = 0.00169787, No Iterations 2
GAMG:  Solving for p, Initial residual = 0.0271321, Final residual = 0.00262321, No Iterations 1
GAMG:  Solving for p, Initial residual = 0.0146522, Final residual = 0.00069218, No Iterations 2
time step continuity errors : sum local = 0.0824552, global = 0.00310035, cumulative = -0.619042
ExecutionTime = 4.33 s  ClockTime = 4 s

Time = 38

smoothSolver:  Solving for Ux, Initial residual = 0.0170051, Final residual = 7.62738e-06, No Iterations 2
smoothSolver:  Solving for Uy, Initial residual = 0.0167742, Final residual = 7.40621e-06, No Iterations 2
smoothSolver:  Solving for Uz, Initial residual = 0.0232821, Final residual = 8.30583e-06, No Iterations 2
GAMG:  Solving for p, Initial residual = 0.13068, Final residual = 0.0062237, No Iterations 2
GAMG:  Solving for p, Initial residual = 0.121483, Final residual = 0.00861157, No Iterations 1
GAMG:  Solving for p, Initial residual = 0.0460167, Final residual = 0.00222123, No Iterations 2
GAMG:  Solving for p, Initial residual = 0.0402069, Final residual = 0.00300633, No Iterations 1
GAMG:  Solving for p, Initial residual = 0.018171, Final residual = 0.000882394, No Iterations 2
time step continuity errors : sum local = 0.0657475, global = -0.00513745, cumulative = -0.624179
ExecutionTime = 4.45 s  ClockTime = 4 s

Time = 39

smoothSolver:  Solving for Ux, Initial residual = 0.0165653, Final residual = 7.30065e-06, No Iterations 2
smoothSolver:  Solving for Uy, Initial residual = 0.0163084, Final residual = 7.13593e-06, No Iterations 2
smoothSolver:  Solving for Uz, Initial residual = 0.019848, Final residual = 7.22833e-06, No Iterations 2
GAMG:  Solving for p, Initial residual = 0.129579, Final residual = 0.00729652, No Iterations 2
GAMG:  Solving for p, Initial residual = 0.12893, Final residual = 0.00862349, No Iterations 1
GAMG:  Solving for p, Initial residual = 0.0449613, Final residual = 0.00221201, No Iterations 2
GAMG:  Solving for p, Initial residual = 0.035612, Final residual = 0.0024931, No Iterations 1
GAMG:  Solving for p, Initial residual = 0.0148229, Final residual = 0.000722841, No Iterations 2
time step continuity errors : sum local = 0.075178, global = -0.00666329, cumulative = -0.630842
ExecutionTime = 4.56 s  ClockTime = 4 s

Time = 40

smoothSolver:  Solving for Ux, Initial residual = 0.016208, Final residual = 7.09005e-06, No Iterations 2
smoothSolver:  Solving for Uy, Initial residual = 0.0159285, Final residual = 6.9373e-06, No Iterations 2
smoothSolver:  Solving for Uz, Initial residual = 0.0159435, Final residual = 6.13497e-06, No Iterations 2
GAMG:  Solving for p, Initial residual = 0.137813, Final residual = 0.00831289, No Iterations 2
GAMG:  Solving for p, Initial residual = 0.111516, Final residual = 0.00760192, No Iterations 1
GAMG:  Solving for p, Initial residual = 0.040058, Final residual = 0.00203494, No Iterations 2
GAMG:  Solving for p, Initial residual = 0.0338144, Final residual = 0.00243287, No Iterations 1
GAMG:  Solving for p, Initial residual = 0.0142726, Final residual = 0.000719745, No Iterations 2
time step continuity errors : sum local = 0.0878463, global = -0.00789994, cumulative = -0.638742
ExecutionTime = 4.66 s  ClockTime = 4 s

Time = 41

smoothSolver:  Solving for Ux, Initial residual = 0.0158156, Final residual = 6.91994e-06, No Iterations 2
smoothSolver:  Solving for Uy, Initial residual = 0.0155011, Final residual = 6.78987e-06, No Iterations 2
smoothSolver:  Solving for Uz, Initial residual = 0.0139233, Final residual = 5.57497e-06, No Iterations 2
GAMG:  Solving for p, Initial residual = 0.159517, Final residual = 0.0090246, No Iterations 2
GAMG:  Solving for p, Initial residual = 0.0945918, Final residual = 0.0067424, No Iterations 1
GAMG:  Solving for p, Initial residual = 0.0351496, Final residual = 0.0018472, No Iterations 2
GAMG:  Solving for p, Initial residual = 0.0311784, Final residual = 0.00234645, No Iterations 1
GAMG:  Solving for p, Initial residual = 0.0137304, Final residual = 0.000705788, No Iterations 2
time step continuity errors : sum local = 0.0887663, global = -0.0070967, cumulative = -0.645839
ExecutionTime = 4.77 s  ClockTime = 4 s

Time = 42

smoothSolver:  Solving for Ux, Initial residual = 0.0153195, Final residual = 6.70572e-06, No Iterations 2
smoothSolver:  Solving for Uy, Initial residual = 0.0149385, Final residual = 6.56708e-06, No Iterations 2
smoothSolver:  Solving for Uz, Initial residual = 0.0139818, Final residual = 5.53605e-06, No Iterations 2
GAMG:  Solving for p, Initial residual = 0.146006, Final residual = 0.00745575, No Iterations 2
GAMG:  Solving for p, Initial residual = 0.075705, Final residual = 0.00588319, No Iterations 1
GAMG:  Solving for p, Initial residual = 0.0301, Final residual = 0.00168218, No Iterations 2
GAMG:  Solving for p, Initial residual = 0.0283265, Final residual = 0.00223804, No Iterations 1
GAMG:  Solving for p, Initial residual = 0.0130099, Final residual = 0.000683808, No Iterations 2
time step continuity errors : sum local = 0.0789213, global = -0.00525107, cumulative = -0.65109
ExecutionTime = 4.88 s  ClockTime = 5 s

Time = 43

smoothSolver:  Solving for Ux, Initial residual = 0.0147647, Final residual = 6.42563e-06, No Iterations 2
smoothSolver:  Solving for Uy, Initial residual = 0.0143025, Final residual = 6.29544e-06, No Iterations 2
smoothSolver:  Solving for Uz, Initial residual = 0.0147148, Final residual = 5.65698e-06, No Iterations 2
GAMG:  Solving for p, Initial residual = 0.127431, Final residual = 0.00517223, No Iterations 2
GAMG:  Solving for p, Initial residual = 0.0628794, Final residual = 0.00538887, No Iterations 1
GAMG:  Solving for p, Initial residual = 0.0273295, Final residual = 0.00148012, No Iterations 2
GAMG:  Solving for p, Initial residual = 0.023697, Final residual = 0.0020318, No Iterations 1
GAMG:  Solving for p, Initial residual = 0.0116946, Final residual = 0.000645817, No Iterations 2
time step continuity errors : sum local = 0.061755, global = -0.00354231, cumulative = -0.654632
ExecutionTime = 4.99 s  ClockTime = 5 s

Time = 44

smoothSolver:  Solving for Ux, Initial residual = 0.0142289, Final residual = 6.17478e-06, No Iterations 2
smoothSolver:  Solving for Uy, Initial residual = 0.0136949, Final residual = 6.04307e-06, No Iterations 2
smoothSolver:  Solving for Uz, Initial residual = 0.0147982, Final residual = 5.58079e-06, No Iterations 2
GAMG:  Solving for p, Initial residual = 0.118131, Final residual = 0.00425376, No Iterations 2
GAMG:  Solving for p, Initial residual = 0.0627377, Final residual = 0.00517804, No Iterations 1
GAMG:  Solving for p, Initial residual = 0.0257978, Final residual = 0.00115708, No Iterations 2
GAMG:  Solving for p, Initial residual = 0.0199018, Final residual = 0.00173101, No Iterations 1
GAMG:  Solving for p, Initial residual = 0.0100905, Final residual = 0.000446849, No Iterations 2
time step continuity errors : sum local = 0.034631, global = 0.00524945, cumulative = -0.649383
ExecutionTime = 5.1 s  ClockTime = 5 s

Time = 45

smoothSolver:  Solving for Ux, Initial residual = 0.0138046, Final residual = 5.94717e-06, No Iterations 2
smoothSolver:  Solving for Uy, Initial residual = 0.0132427, Final residual = 5.82805e-06, No Iterations 2
smoothSolver:  Solving for Uz, Initial residual = 0.0140184, Final residual = 5.283e-06, No Iterations 2
GAMG:  Solving for p, Initial residual = 0.113374, Final residual = 0.00461697, No Iterations 2
GAMG:  Solving for p, Initial residual = 0.082935, Final residual = 0.00572154, No Iterations 1
GAMG:  Solving for p, Initial residual = 0.0298326, Final residual = 0.00141673, No Iterations 2
GAMG:  Solving for p, Initial residual = 0.0225168, Final residual = 0.00164719, No Iterations 1
GAMG:  Solving for p, Initial residual = 0.0099467, Final residual = 0.000481163, No Iterations 2
time step continuity errors : sum local = 0.0325995, global = 0.00248358, cumulative = -0.646899
ExecutionTime = 5.21 s  ClockTime = 5 s

Time = 46

smoothSolver:  Solving for Ux, Initial residual = 0.0135044, Final residual = 5.7817e-06, No Iterations 2
smoothSolver:  Solving for Uy, Initial residual = 0.0129762, Final residual = 5.65494e-06, No Iterations 2
smoothSolver:  Solving for Uz, Initial residual = 0.0127091, Final residual = 4.85576e-06, No Iterations 2
GAMG:  Solving for p, Initial residual = 0.112953, Final residual = 0.00501092, No Iterations 2
GAMG:  Solving for p, Initial residual = 0.0758075, Final residual = 0.00504087, No Iterations 1
GAMG:  Solving for p, Initial residual = 0.0265899, Final residual = 0.0012998, No Iterations 2
GAMG:  Solving for p, Initial residual = 0.0221278, Final residual = 0.00155906, No Iterations 1
GAMG:  Solving for p, Initial residual = 0.0093304, Final residual = 0.000458075, No Iterations 2
time step continuity errors : sum local = 0.0367135, global = 0.00319883, cumulative = -0.6437
ExecutionTime = 5.32 s  ClockTime = 5 s

Time = 47

smoothSolver:  Solving for Ux, Initial residual = 0.0132838, Final residual = 5.60181e-06, No Iterations 2
smoothSolver:  Solving for Uy, Initial residual = 0.0128144, Final residual = 5.49656e-06, No Iterations 2
smoothSolver:  Solving for Uz, Initial residual = 0.0115948, Final residual = 4.48753e-06, No Iterations 2
GAMG:  Solving for p, Initial residual = 0.11705, Final residual = 0.00520674, No Iterations 2
GAMG:  Solving for p, Initial residual = 0.0677015, Final residual = 0.00461683, No Iterations 1
GAMG:  Solving for p, Initial residual = 0.0245441, Final residual = 0.0012397, No Iterations 2
GAMG:  Solving for p, Initial residual = 0.0217472, Final residual = 0.00157328, No Iterations 1
GAMG:  Solving for p, Initial residual = 0.00937094, Final residual = 0.000471424, No Iterations 2
time step continuity errors : sum local = 0.0406071, global = 0.00349671, cumulative = -0.640204
ExecutionTime = 5.42 s  ClockTime = 5 s

Time = 48

smoothSolver:  Solving for Ux, Initial residual = 0.0130823, Final residual = 5.46294e-06, No Iterations 2
smoothSolver:  Solving for Uy, Initial residual = 0.0126746, Final residual = 5.36204e-06, No Iterations 2
smoothSolver:  Solving for Uz, Initial residual = 0.0110493, Final residual = 4.28581e-06, No Iterations 2
GAMG:  Solving for p, Initial residual = 0.122997, Final residual = 0.012123, No Iterations 1
GAMG:  Solving for p, Initial residual = 0.0489484, Final residual = 0.00266196, No Iterations 2
GAMG:  Solving for p, Initial residual = 0.0363399, Final residual = 0.00268235, No Iterations 1
GAMG:  Solving for p, Initial residual = 0.015086, Final residual = 0.000785223, No Iterations 2
GAMG:  Solving for p, Initial residual = 0.0146756, Final residual = 0.0011231, No Iterations 1
time step continuity errors : sum local = 0.0968805, global = 0.0269805, cumulative = -0.613223
ExecutionTime = 5.52 s  ClockTime = 5 s

Time = 49

smoothSolver:  Solving for Ux, Initial residual = 0.0128759, Final residual = 5.33847e-06, No Iterations 2
smoothSolver:  Solving for Uy, Initial residual = 0.0125111, Final residual = 5.25626e-06, No Iterations 2
smoothSolver:  Solving for Uz, Initial residual = 0.0109387, Final residual = 4.18816e-06, No Iterations 2
GAMG:  Solving for p, Initial residual = 0.110435, Final residual = 0.0105064, No Iterations 1
GAMG:  Solving for p, Initial residual = 0.0404072, Final residual = 0.00212172, No Iterations 2
GAMG:  Solving for p, Initial residual = 0.0319203, Final residual = 0.00253045, No Iterations 1
GAMG:  Solving for p, Initial residual = 0.014018, Final residual = 0.000748712, No Iterations 2
GAMG:  Solving for p, Initial residual = 0.0134708, Final residual = 0.00108854, No Iterations 1
time step continuity errors : sum local = 0.0868797, global = 0.0243083, cumulative = -0.588915
ExecutionTime = 5.63 s  ClockTime = 5 s

Time = 50

smoothSolver:  Solving for Ux, Initial residual = 0.0126635, Final residual = 5.24548e-06, No Iterations 2
smoothSolver:  Solving for Uy, Initial residual = 0.012315, Final residual = 5.1406e-06, No Iterations 2
smoothSolver:  Solving for Uz, Initial residual = 0.010934, Final residual = 4.11955e-06, No Iterations 2
GAMG:  Solving for p, Initial residual = 0.102625, Final residual = 0.0033655, No Iterations 2
GAMG:  Solving for p, Initial residual = 0.042419, Final residual = 0.00365136, No Iterations 1
GAMG:  Solving for p, Initial residual = 0.0179714, Final residual = 0.000851392, No Iterations 2
GAMG:  Solving for p, Initial residual = 0.0145736, Final residual = 0.00127268, No Iterations 1
GAMG:  Solving for p, Initial residual = 0.00745404, Final residual = 0.000399258, No Iterations 2
time step continuity errors : sum local = 0.0280602, global = 0.00155787, cumulative = -0.587357
ExecutionTime = 5.75 s  ClockTime = 5 s

Time = 51

smoothSolver:  Solving for Ux, Initial residual = 0.0124564, Final residual = 5.1459e-06, No Iterations 2
smoothSolver:  Solving for Uy, Initial residual = 0.0121019, Final residual = 5.00325e-06, No Iterations 2
smoothSolver:  Solving for Uz, Initial residual = 0.0108168, Final residual = 4.0321e-06, No Iterations 2
GAMG:  Solving for p, Initial residual = 0.0980519, Final residual = 0.00908903, No Iterations 1
GAMG:  Solving for p, Initial residual = 0.0351672, Final residual = 0.00156819, No Iterations 2
GAMG:  Solving for p, Initial residual = 0.0250356, Final residual = 0.0020045, No Iterations 1
GAMG:  Solving for p, Initial residual = 0.0112729, Final residual = 0.000493006, No Iterations 2
GAMG:  Solving for p, Initial residual = 0.0088456, Final residual = 0.000754852, No Iterations 1
time step continuity errors : sum local = 0.0470908, global = -0.00285704, cumulative = -0.590214
ExecutionTime = 5.85 s  ClockTime = 6 s

Time = 52

smoothSolver:  Solving for Ux, Initial residual = 0.012276, Final residual = 5.03773e-06, No Iterations 2
smoothSolver:  Solving for Uy, Initial residual = 0.011897, Final residual = 4.8779e-06, No Iterations 2
smoothSolver:  Solving for Uz, Initial residual = 0.0105543, Final residual = 3.90075e-06, No Iterations 2
GAMG:  Solving for p, Initial residual = 0.0954812, Final residual = 0.00785816, No Iterations 1
GAMG:  Solving for p, Initial residual = 0.0360353, Final residual = 0.00180318, No Iterations 2
GAMG:  Solving for p, Initial residual = 0.0285886, Final residual = 0.00197639, No Iterations 1
GAMG:  Solving for p, Initial residual = 0.0113396, Final residual = 0.00053798, No Iterations 2
GAMG:  Solving for p, Initial residual = 0.00924702, Final residual = 0.000699621, No Iterations 1
time step continuity errors : sum local = 0.0414722, global = -0.00794112, cumulative = -0.598155
ExecutionTime = 5.95 s  ClockTime = 6 s

Time = 53

smoothSolver:  Solving for Ux, Initial residual = 0.0121095, Final residual = 4.93259e-06, No Iterations 2
smoothSolver:  Solving for Uy, Initial residual = 0.0117001, Final residual = 4.77432e-06, No Iterations 2
smoothSolver:  Solving for Uz, Initial residual = 0.0102018, Final residual = 3.78168e-06, No Iterations 2
GAMG:  Solving for p, Initial residual = 0.0950368, Final residual = 0.00765131, No Iterations 1
GAMG:  Solving for p, Initial residual = 0.0381768, Final residual = 0.00197665, No Iterations 2
GAMG:  Solving for p, Initial residual = 0.0271412, Final residual = 0.00183263, No Iterations 1
GAMG:  Solving for p, Initial residual = 0.01048, Final residual = 0.000512617, No Iterations 2
GAMG:  Solving for p, Initial residual = 0.00944033, Final residual = 0.000687495, No Iterations 1
time step continuity errors : sum local = 0.0442646, global = -0.0115605, cumulative = -0.609716
ExecutionTime = 6.07 s  ClockTime = 6 s

Time = 54

smoothSolver:  Solving for Ux, Initial residual = 0.0119474, Final residual = 4.84176e-06, No Iterations 2
smoothSolver:  Solving for Uy, Initial residual = 0.0115126, Final residual = 4.68065e-06, No Iterations 2
smoothSolver:  Solving for Uz, Initial residual = 0.00987449, Final residual = 3.64486e-06, No Iterations 2
GAMG:  Solving for p, Initial residual = 0.0962833, Final residual = 0.0075528, No Iterations 1
GAMG:  Solving for p, Initial residual = 0.0351044, Final residual = 0.0018028, No Iterations 2
GAMG:  Solving for p, Initial residual = 0.025574, Final residual = 0.00176882, No Iterations 1
GAMG:  Solving for p, Initial residual = 0.0100446, Final residual = 0.000504001, No Iterations 2
GAMG:  Solving for p, Initial residual = 0.00947103, Final residual = 0.000697163, No Iterations 1
time step continuity errors : sum local = 0.0464711, global = -0.0133953, cumulative = -0.623111
ExecutionTime = 6.17 s  ClockTime = 6 s

Time = 55

smoothSolver:  Solving for Ux, Initial residual = 0.011768, Final residual = 4.74134e-06, No Iterations 2
smoothSolver:  Solving for Uy, Initial residual = 0.0113083, Final residual = 4.59179e-06, No Iterations 2
smoothSolver:  Solving for Uz, Initial residual = 0.00963374, Final residual = 3.56177e-06, No Iterations 2
GAMG:  Solving for p, Initial residual = 0.0977562, Final residual = 0.00743073, No Iterations 1
GAMG:  Solving for p, Initial residual = 0.0307089, Final residual = 0.0015017, No Iterations 2
GAMG:  Solving for p, Initial residual = 0.0230952, Final residual = 0.00166728, No Iterations 1
GAMG:  Solving for p, Initial residual = 0.009404, Final residual = 0.000481366, No Iterations 2
GAMG:  Solving for p, Initial residual = 0.00896367, Final residual = 0.000683788, No Iterations 1
time step continuity errors : sum local = 0.0451667, global = -0.0135252, cumulative = -0.636636
ExecutionTime = 6.28 s  ClockTime = 6 s

Time = 56

smoothSolver:  Solving for Ux, Initial residual = 0.0115859, Final residual = 4.64635e-06, No Iterations 2
smoothSolver:  Solving for Uy, Initial residual = 0.0111051, Final residual = 4.50942e-06, No Iterations 2
smoothSolver:  Solving for Uz, Initial residual = 0.00947006, Final residual = 3.49015e-06, No Iterations 2
GAMG:  Solving for p, Initial residual = 0.0933683, Final residual = 0.00734377, No Iterations 1
GAMG:  Solving for p, Initial residual = 0.0277068, Final residual = 0.00124757, No Iterations 2
GAMG:  Solving for p, Initial residual = 0.0189895, Final residual = 0.00146344, No Iterations 1
GAMG:  Solving for p, Initial residual = 0.00827128, Final residual = 0.000433232, No Iterations 2
GAMG:  Solving for p, Initial residual = 0.0078924, Final residual = 0.000629933, No Iterations 1
time step continuity errors : sum local = 0.0398341, global = -0.0116581, cumulative = -0.648294
ExecutionTime = 6.38 s  ClockTime = 6 s

Time = 57

smoothSolver:  Solving for Ux, Initial residual = 0.0113972, Final residual = 4.53923e-06, No Iterations 2
smoothSolver:  Solving for Uy, Initial residual = 0.0109072, Final residual = 4.41699e-06, No Iterations 2
smoothSolver:  Solving for Uz, Initial residual = 0.0093259, Final residual = 3.44212e-06, No Iterations 2
GAMG:  Solving for p, Initial residual = 0.0889511, Final residual = 0.00702197, No Iterations 1
GAMG:  Solving for p, Initial residual = 0.0262411, Final residual = 0.00104811, No Iterations 2
GAMG:  Solving for p, Initial residual = 0.0152793, Final residual = 0.00129983, No Iterations 1
GAMG:  Solving for p, Initial residual = 0.00717149, Final residual = 0.000332856, No Iterations 2
GAMG:  Solving for p, Initial residual = 0.00597108, Final residual = 0.000511312, No Iterations 1
time step continuity errors : sum local = 0.0303572, global = -0.00779482, cumulative = -0.656089
ExecutionTime = 6.48 s  ClockTime = 6 s

Time = 58

smoothSolver:  Solving for Ux, Initial residual = 0.0112237, Final residual = 4.43912e-06, No Iterations 2
smoothSolver:  Solving for Uy, Initial residual = 0.0107396, Final residual = 4.34304e-06, No Iterations 2
smoothSolver:  Solving for Uz, Initial residual = 0.00917439, Final residual = 3.38387e-06, No Iterations 2
GAMG:  Solving for p, Initial residual = 0.0859499, Final residual = 0.00637307, No Iterations 1
GAMG:  Solving for p, Initial residual = 0.0250808, Final residual = 0.000970032, No Iterations 2
GAMG:  Solving for p, Initial residual = 0.0153111, Final residual = 0.00116401, No Iterations 1
GAMG:  Solving for p, Initial residual = 0.00666787, Final residual = 0.000283579, No Iterations 2
GAMG:  Solving for p, Initial residual = 0.00507749, Final residual = 0.000409516, No Iterations 1
time step continuity errors : sum local = 0.0229795, global = 0.00140074, cumulative = -0.654688
ExecutionTime = 6.59 s  ClockTime = 6 s

Time = 59

smoothSolver:  Solving for Ux, Initial residual = 0.0110633, Final residual = 4.34621e-06, No Iterations 2
smoothSolver:  Solving for Uy, Initial residual = 0.0105933, Final residual = 4.25972e-06, No Iterations 2
smoothSolver:  Solving for Uz, Initial residual = 0.00901815, Final residual = 3.32778e-06, No Iterations 2
GAMG:  Solving for p, Initial residual = 0.0839283, Final residual = 0.00571008, No Iterations 1
GAMG:  Solving for p, Initial residual = 0.0242666, Final residual = 0.0010597, No Iterations 2
GAMG:  Solving for p, Initial residual = 0.0161846, Final residual = 0.00110896, No Iterations 1
GAMG:  Solving for p, Initial residual = 0.00638663, Final residual = 0.000286951, No Iterations 2
GAMG:  Solving for p, Initial residual = 0.00506381, Final residual = 0.000371164, No Iterations 1
time step continuity errors : sum local = 0.0211525, global = 0.00397751, cumulative = -0.650711
ExecutionTime = 6.7 s  ClockTime = 6 s

Time = 60

smoothSolver:  Solving for Ux, Initial residual = 0.0109172, Final residual = 4.25949e-06, No Iterations 2
smoothSolver:  Solving for Uy, Initial residual = 0.0104694, Final residual = 4.19569e-06, No Iterations 2
smoothSolver:  Solving for Uz, Initial residual = 0.00886056, Final residual = 3.27003e-06, No Iterations 2
GAMG:  Solving for p, Initial residual = 0.0830336, Final residual = 0.00538732, No Iterations 1
GAMG:  Solving for p, Initial residual = 0.0237417, Final residual = 0.00105672, No Iterations 2
GAMG:  Solving for p, Initial residual = 0.01619, Final residual = 0.00108525, No Iterations 1
GAMG:  Solving for p, Initial residual = 0.00620774, Final residual = 0.000287892, No Iterations 2
GAMG:  Solving for p, Initial residual = 0.00537014, Final residual = 0.000384942, No Iterations 1
time step continuity errors : sum local = 0.0228024, global = 0.00594582, cumulative = -0.644765
ExecutionTime = 6.8 s  ClockTime = 7 s

Time = 61

smoothSolver:  Solving for Ux, Initial residual = 0.01078, Final residual = 4.17857e-06, No Iterations 2
smoothSolver:  Solving for Uy, Initial residual = 0.0103619, Final residual = 4.11682e-06, No Iterations 2
smoothSolver:  Solving for Uz, Initial residual = 0.00872149, Final residual = 3.21249e-06, No Iterations 2
GAMG:  Solving for p, Initial residual = 0.0824419, Final residual = 0.00530499, No Iterations 1
GAMG:  Solving for p, Initial residual = 0.022587, Final residual = 0.000989015, No Iterations 2
GAMG:  Solving for p, Initial residual = 0.0154919, Final residual = 0.00106714, No Iterations 1
GAMG:  Solving for p, Initial residual = 0.00609486, Final residual = 0.00029112, No Iterations 2
GAMG:  Solving for p, Initial residual = 0.00554623, Final residual = 0.000407392, No Iterations 1
time step continuity errors : sum local = 0.0244811, global = 0.00690345, cumulative = -0.637862
ExecutionTime = 6.91 s  ClockTime = 7 s

Time = 62

smoothSolver:  Solving for Ux, Initial residual = 0.0106518, Final residual = 4.12121e-06, No Iterations 2
smoothSolver:  Solving for Uy, Initial residual = 0.010263, Final residual = 4.06323e-06, No Iterations 2
smoothSolver:  Solving for Uz, Initial residual = 0.00861059, Final residual = 3.15447e-06, No Iterations 2
GAMG:  Solving for p, Initial residual = 0.0803685, Final residual = 0.00525961, No Iterations 1
GAMG:  Solving for p, Initial residual = 0.0214577, Final residual = 0.000889182, No Iterations 2
GAMG:  Solving for p, Initial residual = 0.0138668, Final residual = 0.00100738, No Iterations 1
GAMG:  Solving for p, Initial residual = 0.00575287, Final residual = 0.00028199, No Iterations 2
GAMG:  Solving for p, Initial residual = 0.00532808, Final residual = 0.000408355, No Iterations 1
time step continuity errors : sum local = 0.0243625, global = 0.00679629, cumulative = -0.631065
ExecutionTime = 7.01 s  ClockTime = 7 s

Time = 63

smoothSolver:  Solving for Ux, Initial residual = 0.0105366, Final residual = 4.06703e-06, No Iterations 2
smoothSolver:  Solving for Uy, Initial residual = 0.0101647, Final residual = 4.02645e-06, No Iterations 2
smoothSolver:  Solving for Uz, Initial residual = 0.00851696, Final residual = 3.11531e-06, No Iterations 2
GAMG:  Solving for p, Initial residual = 0.0775662, Final residual = 0.00514083, No Iterations 1
GAMG:  Solving for p, Initial residual = 0.0206878, Final residual = 0.000755887, No Iterations 2
GAMG:  Solving for p, Initial residual = 0.0116906, Final residual = 0.00090557, No Iterations 1
GAMG:  Solving for p, Initial residual = 0.00520212, Final residual = 0.000256068, No Iterations 2
GAMG:  Solving for p, Initial residual = 0.00467915, Final residual = 0.000375102, No Iterations 1
time step continuity errors : sum local = 0.0218529, global = 0.00566545, cumulative = -0.6254
ExecutionTime = 7.12 s  ClockTime = 7 s

Time = 64

smoothSolver:  Solving for Ux, Initial residual = 0.010429, Final residual = 4.02573e-06, No Iterations 2
smoothSolver:  Solving for Uy, Initial residual = 0.0100686, Final residual = 3.98315e-06, No Iterations 2
smoothSolver:  Solving for Uz, Initial residual = 0.00842603, Final residual = 3.07369e-06, No Iterations 2
GAMG:  Solving for p, Initial residual = 0.0753835, Final residual = 0.00489644, No Iterations 1
GAMG:  Solving for p, Initial residual = 0.0201367, Final residual = 0.000688593, No Iterations 2
GAMG:  Solving for p, Initial residual = 0.0101615, Final residual = 0.000866461, No Iterations 1
GAMG:  Solving for p, Initial residual = 0.00477482, Final residual = 0.000201428, No Iterations 2
GAMG:  Solving for p, Initial residual = 0.00368028, Final residual = 0.000320928, No Iterations 1
time step continuity errors : sum local = 0.0181161, global = 0.00356829, cumulative = -0.621832
ExecutionTime = 7.22 s  ClockTime = 7 s

Time = 65

smoothSolver:  Solving for Ux, Initial residual = 0.0103256, Final residual = 3.97719e-06, No Iterations 2
smoothSolver:  Solving for Uy, Initial residual = 0.00997762, Final residual = 3.93509e-06, No Iterations 2
smoothSolver:  Solving for Uz, Initial residual = 0.00833017, Final residual = 3.03185e-06, No Iterations 2
GAMG:  Solving for p, Initial residual = 0.073733, Final residual = 0.00457934, No Iterations 1
GAMG:  Solving for p, Initial residual = 0.0195669, Final residual = 0.00189871, No Iterations 1
GAMG:  Solving for p, Initial residual = 0.00863785, Final residual = 0.000372783, No Iterations 2
GAMG:  Solving for p, Initial residual = 0.00617528, Final residual = 0.000490989, No Iterations 1
GAMG:  Solving for p, Initial residual = 0.00293515, Final residual = 0.000128678, No Iterations 2
time step continuity errors : sum local = 0.00707903, global = -0.00105325, cumulative = -0.622885
ExecutionTime = 7.32 s  ClockTime = 7 s

Time = 66

smoothSolver:  Solving for Ux, Initial residual = 0.0102318, Final residual = 3.93804e-06, No Iterations 2
smoothSolver:  Solving for Uy, Initial residual = 0.00989077, Final residual = 3.91094e-06, No Iterations 2
smoothSolver:  Solving for Uz, Initial residual = 0.00823045, Final residual = 3.0009e-06, No Iterations 2
GAMG:  Solving for p, Initial residual = 0.0725033, Final residual = 0.00426623, No Iterations 1
GAMG:  Solving for p, Initial residual = 0.0190284, Final residual = 0.00169861, No Iterations 1
GAMG:  Solving for p, Initial residual = 0.00860168, Final residual = 0.000391152, No Iterations 2
GAMG:  Solving for p, Initial residual = 0.00648951, Final residual = 0.000466742, No Iterations 1
GAMG:  Solving for p, Initial residual = 0.00284942, Final residual = 0.000134381, No Iterations 2
time step continuity errors : sum local = 0.0072542, global = -0.000604728, cumulative = -0.62349
ExecutionTime = 7.42 s  ClockTime = 7 s

Time = 67

smoothSolver:  Solving for Ux, Initial residual = 0.0101292, Final residual = 3.90928e-06, No Iterations 2
smoothSolver:  Solving for Uy, Initial residual = 0.00979892, Final residual = 3.86944e-06, No Iterations 2
smoothSolver:  Solving for Uz, Initial residual = 0.00811977, Final residual = 2.96306e-06, No Iterations 2
GAMG:  Solving for p, Initial residual = 0.0717145, Final residual = 0.0040506, No Iterations 1
GAMG:  Solving for p, Initial residual = 0.018543, Final residual = 0.00164864, No Iterations 1
GAMG:  Solving for p, Initial residual = 0.00862772, Final residual = 0.000399961, No Iterations 2
GAMG:  Solving for p, Initial residual = 0.00652229, Final residual = 0.000461715, No Iterations 1
GAMG:  Solving for p, Initial residual = 0.00279756, Final residual = 0.000134189, No Iterations 2
time step continuity errors : sum local = 0.00728884, global = -0.000641351, cumulative = -0.624131
ExecutionTime = 7.53 s  ClockTime = 7 s

Time = 68

smoothSolver:  Solving for Ux, Initial residual = 0.010032, Final residual = 3.8642e-06, No Iterations 2
smoothSolver:  Solving for Uy, Initial residual = 0.00970789, Final residual = 3.84316e-06, No Iterations 2
smoothSolver:  Solving for Uz, Initial residual = 0.0080062, Final residual = 2.92133e-06, No Iterations 2
GAMG:  Solving for p, Initial residual = 0.0710269, Final residual = 0.00397974, No Iterations 1
GAMG:  Solving for p, Initial residual = 0.0181237, Final residual = 0.00160108, No Iterations 1
GAMG:  Solving for p, Initial residual = 0.00826148, Final residual = 0.00038451, No Iterations 2
GAMG:  Solving for p, Initial residual = 0.00629647, Final residual = 0.000451502, No Iterations 1
GAMG:  Solving for p, Initial residual = 0.00272087, Final residual = 0.000131823, No Iterations 2
time step continuity errors : sum local = 0.00719853, global = -0.000668043, cumulative = -0.624799
ExecutionTime = 7.64 s  ClockTime = 7 s

Time = 69

smoothSolver:  Solving for Ux, Initial residual = 0.00992419, Final residual = 3.80975e-06, No Iterations 2
smoothSolver:  Solving for Uy, Initial residual = 0.00961799, Final residual = 3.80119e-06, No Iterations 2
smoothSolver:  Solving for Uz, Initial residual = 0.00790035, Final residual = 2.87762e-06, No Iterations 2
GAMG:  Solving for p, Initial residual = 0.0702108, Final residual = 0.00395491, No Iterations 1
GAMG:  Solving for p, Initial residual = 0.0176622, Final residual = 0.0015341, No Iterations 1
GAMG:  Solving for p, Initial residual = 0.00760557, Final residual = 0.000346151, No Iterations 2
GAMG:  Solving for p, Initial residual = 0.00574915, Final residual = 0.000422039, No Iterations 1
GAMG:  Solving for p, Initial residual = 0.00254328, Final residual = 0.000124586, No Iterations 2
time step continuity errors : sum local = 0.00678706, global = -0.000590027, cumulative = -0.625389
ExecutionTime = 7.73 s  ClockTime = 7 s

Time = 70

smoothSolver:  Solving for Ux, Initial residual = 0.00981, Final residual = 3.76015e-06, No Iterations 2
smoothSolver:  Solving for Uy, Initial residual = 0.0095264, Final residual = 3.75621e-06, No Iterations 2
smoothSolver:  Solving for Uz, Initial residual = 0.00779967, Final residual = 2.8359e-06, No Iterations 2
GAMG:  Solving for p, Initial residual = 0.0689794, Final residual = 0.00389585, No Iterations 1
GAMG:  Solving for p, Initial residual = 0.01721, Final residual = 0.00151735, No Iterations 1
GAMG:  Solving for p, Initial residual = 0.00699944, Final residual = 0.00029576, No Iterations 2
GAMG:  Solving for p, Initial residual = 0.00487309, Final residual = 0.000373181, No Iterations 1
GAMG:  Solving for p, Initial residual = 0.00226851, Final residual = 0.000111196, No Iterations 2
time step continuity errors : sum local = 0.00600802, global = -0.000465397, cumulative = -0.625854
ExecutionTime = 7.84 s  ClockTime = 8 s

Time = 71

smoothSolver:  Solving for Ux, Initial residual = 0.00969601, Final residual = 3.71149e-06, No Iterations 2
smoothSolver:  Solving for Uy, Initial residual = 0.00944273, Final residual = 3.70392e-06, No Iterations 2
smoothSolver:  Solving for Uz, Initial residual = 0.00770973, Final residual = 2.79365e-06, No Iterations 2
GAMG:  Solving for p, Initial residual = 0.0675792, Final residual = 0.00378402, No Iterations 1
GAMG:  Solving for p, Initial residual = 0.0167697, Final residual = 0.00149478, No Iterations 1
GAMG:  Solving for p, Initial residual = 0.00668344, Final residual = 0.000251911, No Iterations 2
GAMG:  Solving for p, Initial residual = 0.00406398, Final residual = 0.000335111, No Iterations 1
GAMG:  Solving for p, Initial residual = 0.00200384, Final residual = 8.79427e-05, No Iterations 2
time step continuity errors : sum local = 0.00471247, global = -0.000459246, cumulative = -0.626314
ExecutionTime = 7.95 s  ClockTime = 8 s

Time = 72

smoothSolver:  Solving for Ux, Initial residual = 0.00958626, Final residual = 3.66204e-06, No Iterations 2
smoothSolver:  Solving for Uy, Initial residual = 0.0093621, Final residual = 3.66193e-06, No Iterations 2
smoothSolver:  Solving for Uz, Initial residual = 0.0076245, Final residual = 2.75967e-06, No Iterations 2
GAMG:  Solving for p, Initial residual = 0.0662562, Final residual = 0.00365686, No Iterations 1
GAMG:  Solving for p, Initial residual = 0.0163402, Final residual = 0.001421, No Iterations 1
GAMG:  Solving for p, Initial residual = 0.0064729, Final residual = 0.000226871, No Iterations 2
GAMG:  Solving for p, Initial residual = 0.0038524, Final residual = 0.000300716, No Iterations 1
GAMG:  Solving for p, Initial residual = 0.00185003, Final residual = 7.30193e-05, No Iterations 2
time step continuity errors : sum local = 0.00389655, global = 0.000665644, cumulative = -0.625648
ExecutionTime = 8.05 s  ClockTime = 8 s

Time = 73

smoothSolver:  Solving for Ux, Initial residual = 0.0094767, Final residual = 3.61903e-06, No Iterations 2
smoothSolver:  Solving for Uy, Initial residual = 0.00928622, Final residual = 3.60695e-06, No Iterations 2
smoothSolver:  Solving for Uz, Initial residual = 0.00754501, Final residual = 2.71435e-06, No Iterations 2
GAMG:  Solving for p, Initial residual = 0.0650045, Final residual = 0.00352885, No Iterations 1
GAMG:  Solving for p, Initial residual = 0.0159411, Final residual = 0.00132378, No Iterations 1
GAMG:  Solving for p, Initial residual = 0.00626143, Final residual = 0.000618405, No Iterations 1
GAMG:  Solving for p, Initial residual = 0.0033321, Final residual = 0.000147286, No Iterations 2
GAMG:  Solving for p, Initial residual = 0.00244675, Final residual = 0.00017552, No Iterations 1
time step continuity errors : sum local = 0.00937331, global = 0.00138422, cumulative = -0.624264
ExecutionTime = 8.15 s  ClockTime = 8 s

Time = 74

smoothSolver:  Solving for Ux, Initial residual = 0.00937084, Final residual = 3.57671e-06, No Iterations 2
smoothSolver:  Solving for Uy, Initial residual = 0.00921505, Final residual = 3.5782e-06, No Iterations 2
smoothSolver:  Solving for Uz, Initial residual = 0.00747025, Final residual = 2.68466e-06, No Iterations 2
GAMG:  Solving for p, Initial residual = 0.0640198, Final residual = 0.00344957, No Iterations 1
GAMG:  Solving for p, Initial residual = 0.0155808, Final residual = 0.00126332, No Iterations 1
GAMG:  Solving for p, Initial residual = 0.00609706, Final residual = 0.000601535, No Iterations 1
GAMG:  Solving for p, Initial residual = 0.00334122, Final residual = 0.000150739, No Iterations 2
GAMG:  Solving for p, Initial residual = 0.00252611, Final residual = 0.000177273, No Iterations 1
time step continuity errors : sum local = 0.00950307, global = 0.00195892, cumulative = -0.622305
ExecutionTime = 8.25 s  ClockTime = 8 s

Time = 75

smoothSolver:  Solving for Ux, Initial residual = 0.00927292, Final residual = 3.53148e-06, No Iterations 2
smoothSolver:  Solving for Uy, Initial residual = 0.00915023, Final residual = 3.54162e-06, No Iterations 2
smoothSolver:  Solving for Uz, Initial residual = 0.00739893, Final residual = 2.6509e-06, No Iterations 2
GAMG:  Solving for p, Initial residual = 0.0630435, Final residual = 0.0033805, No Iterations 1
GAMG:  Solving for p, Initial residual = 0.0152811, Final residual = 0.00123923, No Iterations 1
GAMG:  Solving for p, Initial residual = 0.00594469, Final residual = 0.00059195, No Iterations 1
GAMG:  Solving for p, Initial residual = 0.00329683, Final residual = 0.000149939, No Iterations 2
GAMG:  Solving for p, Initial residual = 0.00255046, Final residual = 0.000182572, No Iterations 1
time step continuity errors : sum local = 0.00980121, global = 0.002235, cumulative = -0.62007
ExecutionTime = 8.36 s  ClockTime = 8 s

Time = 76

smoothSolver:  Solving for Ux, Initial residual = 0.00918309, Final residual = 3.49066e-06, No Iterations 2
smoothSolver:  Solving for Uy, Initial residual = 0.00908947, Final residual = 3.52205e-06, No Iterations 2
smoothSolver:  Solving for Uz, Initial residual = 0.00732739, Final residual = 2.62598e-06, No Iterations 2
GAMG:  Solving for p, Initial residual = 0.0619047, Final residual = 0.00330569, No Iterations 1
GAMG:  Solving for p, Initial residual = 0.014991, Final residual = 0.00122956, No Iterations 1
GAMG:  Solving for p, Initial residual = 0.00579491, Final residual = 0.000578449, No Iterations 1
GAMG:  Solving for p, Initial residual = 0.00316165, Final residual = 0.000142177, No Iterations 2
GAMG:  Solving for p, Initial residual = 0.00246711, Final residual = 0.00018196, No Iterations 1
time step continuity errors : sum local = 0.00974217, global = 0.0022286, cumulative = -0.617841
ExecutionTime = 8.45 s  ClockTime = 8 s

Time = 77

smoothSolver:  Solving for Ux, Initial residual = 0.0090994, Final residual = 3.45752e-06, No Iterations 2
smoothSolver:  Solving for Uy, Initial residual = 0.00903287, Final residual = 3.50573e-06, No Iterations 2
smoothSolver:  Solving for Uz, Initial residual = 0.00725774, Final residual = 2.59682e-06, No Iterations 2
GAMG:  Solving for p, Initial residual = 0.0608178, Final residual = 0.00323345, No Iterations 1
GAMG:  Solving for p, Initial residual = 0.0147565, Final residual = 0.00122684, No Iterations 1
GAMG:  Solving for p, Initial residual = 0.00567214, Final residual = 0.000203244, No Iterations 2
GAMG:  Solving for p, Initial residual = 0.00346619, Final residual = 0.000260235, No Iterations 1
GAMG:  Solving for p, Initial residual = 0.00163292, Final residual = 7.25288e-05, No Iterations 2
time step continuity errors : sum local = 0.00385716, global = 0.000237545, cumulative = -0.617604
ExecutionTime = 8.56 s  ClockTime = 8 s

Time = 78

smoothSolver:  Solving for Ux, Initial residual = 0.00901926, Final residual = 3.42525e-06, No Iterations 2
smoothSolver:  Solving for Uy, Initial residual = 0.00897227, Final residual = 3.47389e-06, No Iterations 2
smoothSolver:  Solving for Uz, Initial residual = 0.00718737, Final residual = 2.57109e-06, No Iterations 2
GAMG:  Solving for p, Initial residual = 0.0597646, Final residual = 0.00314892, No Iterations 1
GAMG:  Solving for p, Initial residual = 0.0145403, Final residual = 0.00120219, No Iterations 1
GAMG:  Solving for p, Initial residual = 0.00557173, Final residual = 0.000186341, No Iterations 2
GAMG:  Solving for p, Initial residual = 0.00315421, Final residual = 0.000250928, No Iterations 1
GAMG:  Solving for p, Initial residual = 0.00154727, Final residual = 6.17654e-05, No Iterations 2
time step continuity errors : sum local = 0.00326483, global = 0.000197968, cumulative = -0.617406
ExecutionTime = 8.67 s  ClockTime = 8 s

Time = 79

smoothSolver:  Solving for Ux, Initial residual = 0.00894236, Final residual = 3.38995e-06, No Iterations 2
smoothSolver:  Solving for Uy, Initial residual = 0.0089128, Final residual = 3.4441e-06, No Iterations 2
smoothSolver:  Solving for Uz, Initial residual = 0.00711868, Final residual = 2.54523e-06, No Iterations 2
GAMG:  Solving for p, Initial residual = 0.0588757, Final residual = 0.00306901, No Iterations 1
GAMG:  Solving for p, Initial residual = 0.0143768, Final residual = 0.00116949, No Iterations 1
GAMG:  Solving for p, Initial residual = 0.00548707, Final residual = 0.000175511, No Iterations 2
GAMG:  Solving for p, Initial residual = 0.00304027, Final residual = 0.000240676, No Iterations 1
GAMG:  Solving for p, Initial residual = 0.00150111, Final residual = 5.72841e-05, No Iterations 2
time step continuity errors : sum local = 0.00301352, global = -0.000484725, cumulative = -0.61789
ExecutionTime = 8.77 s  ClockTime = 8 s

Time = 80

smoothSolver:  Solving for Ux, Initial residual = 0.00886563, Final residual = 3.35618e-06, No Iterations 2
smoothSolver:  Solving for Uy, Initial residual = 0.0088516, Final residual = 3.42301e-06, No Iterations 2
smoothSolver:  Solving for Uz, Initial residual = 0.00704956, Final residual = 2.52344e-06, No Iterations 2
GAMG:  Solving for p, Initial residual = 0.0580613, Final residual = 0.00300485, No Iterations 1
GAMG:  Solving for p, Initial residual = 0.014194, Final residual = 0.00113853, No Iterations 1
GAMG:  Solving for p, Initial residual = 0.00539572, Final residual = 0.0005304, No Iterations 1
GAMG:  Solving for p, Initial residual = 0.002723, Final residual = 0.00011903, No Iterations 2
GAMG:  Solving for p, Initial residual = 0.00196919, Final residual = 0.000149842, No Iterations 1
time step continuity errors : sum local = 0.00784584, global = -0.00141579, cumulative = -0.619306
ExecutionTime = 8.87 s  ClockTime = 9 s

Time = 81

smoothSolver:  Solving for Ux, Initial residual = 0.00878906, Final residual = 3.32433e-06, No Iterations 2
smoothSolver:  Solving for Uy, Initial residual = 0.00878972, Final residual = 3.39564e-06, No Iterations 2
smoothSolver:  Solving for Uz, Initial residual = 0.00697954, Final residual = 2.49831e-06, No Iterations 2
GAMG:  Solving for p, Initial residual = 0.0572514, Final residual = 0.00296856, No Iterations 1
GAMG:  Solving for p, Initial residual = 0.0140304, Final residual = 0.00111502, No Iterations 1
GAMG:  Solving for p, Initial residual = 0.00531905, Final residual = 0.000516779, No Iterations 1
GAMG:  Solving for p, Initial residual = 0.00272481, Final residual = 0.000127258, No Iterations 2
GAMG:  Solving for p, Initial residual = 0.00208405, Final residual = 0.000154184, No Iterations 1
time step continuity errors : sum local = 0.00804871, global = -0.0018357, cumulative = -0.621142
ExecutionTime = 8.97 s  ClockTime = 9 s

Time = 82

smoothSolver:  Solving for Ux, Initial residual = 0.00870813, Final residual = 3.29242e-06, No Iterations 2
smoothSolver:  Solving for Uy, Initial residual = 0.00872388, Final residual = 3.38003e-06, No Iterations 2
smoothSolver:  Solving for Uz, Initial residual = 0.00690783, Final residual = 2.46824e-06, No Iterations 2
GAMG:  Solving for p, Initial residual = 0.0565015, Final residual = 0.0029609, No Iterations 1
GAMG:  Solving for p, Initial residual = 0.0138773, Final residual = 0.00110787, No Iterations 1
GAMG:  Solving for p, Initial residual = 0.00526582, Final residual = 0.000514795, No Iterations 1
GAMG:  Solving for p, Initial residual = 0.00273037, Final residual = 0.000129484, No Iterations 2
GAMG:  Solving for p, Initial residual = 0.00213217, Final residual = 0.000157383, No Iterations 1
time step continuity errors : sum local = 0.00820111, global = -0.00208772, cumulative = -0.62323
ExecutionTime = 9.08 s  ClockTime = 9 s

Time = 83

smoothSolver:  Solving for Ux, Initial residual = 0.00863331, Final residual = 3.27384e-06, No Iterations 2
[...]
GAMG:  Solving for p, Initial residual = 6.02877e-05, Final residual = 5.54976e-06, No Iterations 1
time step continuity errors : sum local = 0.000274603, global = -1.70842e-05, cumulative = -0.596755
ExecutionTime = 213.45 s  ClockTime = 213 s

Time = 1981

smoothSolver:  Solving for Ux, Initial residual = 7.51261e-05, Final residual = 4.46739e-08, No Iterations 2
smoothSolver:  Solving for Uy, Initial residual = 6.92593e-05, Final residual = 4.75515e-08, No Iterations 2
smoothSolver:  Solving for Uz, Initial residual = 2.96642e-05, Final residual = 1.56336e-08, No Iterations 2
GAMG:  Solving for p, Initial residual = 0.000878727, Final residual = 7.39467e-05, No Iterations 1
GAMG:  Solving for p, Initial residual = 0.000317745, Final residual = 1.26983e-05, No Iterations 2
GAMG:  Solving for p, Initial residual = 0.000167394, Final residual = 1.44901e-05, No Iterations 1
GAMG:  Solving for p, Initial residual = 8.32413e-05, Final residual = 3.80493e-06, No Iterations 2
GAMG:  Solving for p, Initial residual = 5.86841e-05, Final residual = 5.28767e-06, No Iterations 1
time step continuity errors : sum local = 0.000261656, global = -2.92824e-05, cumulative = -0.596785
ExecutionTime = 213.56 s  ClockTime = 213 s

Time = 1982

smoothSolver:  Solving for Ux, Initial residual = 7.37551e-05, Final residual = 4.27443e-08, No Iterations 2
smoothSolver:  Solving for Uy, Initial residual = 6.74381e-05, Final residual = 4.72822e-08, No Iterations 2
smoothSolver:  Solving for Uz, Initial residual = 2.95469e-05, Final residual = 1.54977e-08, No Iterations 2
GAMG:  Solving for p, Initial residual = 0.000845488, Final residual = 7.05316e-05, No Iterations 1
GAMG:  Solving for p, Initial residual = 0.00030369, Final residual = 1.20486e-05, No Iterations 2
GAMG:  Solving for p, Initial residual = 0.000158041, Final residual = 1.35444e-05, No Iterations 1
GAMG:  Solving for p, Initial residual = 7.82913e-05, Final residual = 3.6867e-06, No Iterations 2
GAMG:  Solving for p, Initial residual = 5.50122e-05, Final residual = 5.01591e-06, No Iterations 1
time step continuity errors : sum local = 0.000248177, global = -3.54292e-05, cumulative = -0.59682
ExecutionTime = 213.67 s  ClockTime = 213 s

Time = 1983

smoothSolver:  Solving for Ux, Initial residual = 7.38724e-05, Final residual = 4.15265e-08, No Iterations 2
smoothSolver:  Solving for Uy, Initial residual = 6.80846e-05, Final residual = 4.72945e-08, No Iterations 2
smoothSolver:  Solving for Uz, Initial residual = 2.97394e-05, Final residual = 1.60145e-08, No Iterations 2
GAMG:  Solving for p, Initial residual = 0.00081269, Final residual = 6.68928e-05, No Iterations 1
GAMG:  Solving for p, Initial residual = 0.000292311, Final residual = 1.14942e-05, No Iterations 2
GAMG:  Solving for p, Initial residual = 0.000151299, Final residual = 1.27715e-05, No Iterations 1
GAMG:  Solving for p, Initial residual = 7.44068e-05, Final residual = 3.65265e-06, No Iterations 2
GAMG:  Solving for p, Initial residual = 5.18098e-05, Final residual = 4.80074e-06, No Iterations 1
time step continuity errors : sum local = 0.00023755, global = -4.0369e-05, cumulative = -0.59686
ExecutionTime = 213.76 s  ClockTime = 214 s

Time = 1984

smoothSolver:  Solving for Ux, Initial residual = 7.37749e-05, Final residual = 4.16548e-08, No Iterations 2
smoothSolver:  Solving for Uy, Initial residual = 6.80259e-05, Final residual = 4.94704e-08, No Iterations 2
smoothSolver:  Solving for Uz, Initial residual = 2.99033e-05, Final residual = 1.60398e-08, No Iterations 2
GAMG:  Solving for p, Initial residual = 0.000814142, Final residual = 6.76429e-05, No Iterations 1
GAMG:  Solving for p, Initial residual = 0.000299144, Final residual = 1.19488e-05, No Iterations 2
GAMG:  Solving for p, Initial residual = 0.000155111, Final residual = 1.32072e-05, No Iterations 1
GAMG:  Solving for p, Initial residual = 7.67819e-05, Final residual = 3.91187e-06, No Iterations 2
GAMG:  Solving for p, Initial residual = 5.28454e-05, Final residual = 5.01507e-06, No Iterations 1
time step continuity errors : sum local = 0.000248118, global = -3.85988e-05, cumulative = -0.596899
ExecutionTime = 213.87 s  ClockTime = 214 s

Time = 1985

smoothSolver:  Solving for Ux, Initial residual = 7.29961e-05, Final residual = 4.29984e-08, No Iterations 2
smoothSolver:  Solving for Uy, Initial residual = 6.88088e-05, Final residual = 5.26881e-08, No Iterations 2
smoothSolver:  Solving for Uz, Initial residual = 2.99295e-05, Final residual = 1.62647e-08, No Iterations 2
GAMG:  Solving for p, Initial residual = 0.00081426, Final residual = 6.75121e-05, No Iterations 1
GAMG:  Solving for p, Initial residual = 0.000299341, Final residual = 1.1752e-05, No Iterations 2
GAMG:  Solving for p, Initial residual = 0.000155089, Final residual = 1.32181e-05, No Iterations 1
GAMG:  Solving for p, Initial residual = 7.69993e-05, Final residual = 3.85118e-06, No Iterations 2
GAMG:  Solving for p, Initial residual = 5.20611e-05, Final residual = 4.98335e-06, No Iterations 1
time step continuity errors : sum local = 0.000246576, global = -3.60982e-05, cumulative = -0.596935
ExecutionTime = 213.97 s  ClockTime = 214 s

Time = 1986

smoothSolver:  Solving for Ux, Initial residual = 7.28894e-05, Final residual = 4.22519e-08, No Iterations 2
smoothSolver:  Solving for Uy, Initial residual = 6.95345e-05, Final residual = 5.05405e-08, No Iterations 2
smoothSolver:  Solving for Uz, Initial residual = 2.96304e-05, Final residual = 1.56444e-08, No Iterations 2
GAMG:  Solving for p, Initial residual = 0.000810973, Final residual = 6.82565e-05, No Iterations 1
GAMG:  Solving for p, Initial residual = 0.000298205, Final residual = 1.1112e-05, No Iterations 2
GAMG:  Solving for p, Initial residual = 0.000152324, Final residual = 1.27558e-05, No Iterations 1
GAMG:  Solving for p, Initial residual = 7.57328e-05, Final residual = 3.5935e-06, No Iterations 2
GAMG:  Solving for p, Initial residual = 5.01398e-05, Final residual = 4.8118e-06, No Iterations 1
time step continuity errors : sum local = 0.000238068, global = -2.94913e-05, cumulative = -0.596965
ExecutionTime = 214.07 s  ClockTime = 214 s

Time = 1987

smoothSolver:  Solving for Ux, Initial residual = 7.14579e-05, Final residual = 4.18998e-08, No Iterations 2
smoothSolver:  Solving for Uy, Initial residual = 6.82212e-05, Final residual = 4.71425e-08, No Iterations 2
smoothSolver:  Solving for Uz, Initial residual = 2.89597e-05, Final residual = 1.47033e-08, No Iterations 2
GAMG:  Solving for p, Initial residual = 0.000825136, Final residual = 6.99772e-05, No Iterations 1
GAMG:  Solving for p, Initial residual = 0.000302017, Final residual = 1.14979e-05, No Iterations 2
GAMG:  Solving for p, Initial residual = 0.000153769, Final residual = 1.29426e-05, No Iterations 1
GAMG:  Solving for p, Initial residual = 7.62127e-05, Final residual = 3.51326e-06, No Iterations 2
GAMG:  Solving for p, Initial residual = 5.03312e-05, Final residual = 4.7342e-06, No Iterations 1
time step continuity errors : sum local = 0.000234261, global = -2.22747e-05, cumulative = -0.596987
ExecutionTime = 214.17 s  ClockTime = 214 s

Time = 1988

smoothSolver:  Solving for Ux, Initial residual = 7.10403e-05, Final residual = 4.03408e-08, No Iterations 2
smoothSolver:  Solving for Uy, Initial residual = 6.69224e-05, Final residual = 4.38098e-08, No Iterations 2
smoothSolver:  Solving for Uz, Initial residual = 2.8365e-05, Final residual = 1.38606e-08, No Iterations 2
GAMG:  Solving for p, Initial residual = 0.000794814, Final residual = 6.74459e-05, No Iterations 1
GAMG:  Solving for p, Initial residual = 0.000291011, Final residual = 1.14238e-05, No Iterations 2
GAMG:  Solving for p, Initial residual = 0.000150464, Final residual = 1.28384e-05, No Iterations 1
GAMG:  Solving for p, Initial residual = 7.4987e-05, Final residual = 3.42574e-06, No Iterations 2
GAMG:  Solving for p, Initial residual = 5.07858e-05, Final residual = 4.64226e-06, No Iterations 1
time step continuity errors : sum local = 0.000229706, global = -6.51689e-06, cumulative = -0.596993
ExecutionTime = 214.28 s  ClockTime = 214 s

Time = 1989

smoothSolver:  Solving for Ux, Initial residual = 7.1161e-05, Final residual = 3.97902e-08, No Iterations 2
smoothSolver:  Solving for Uy, Initial residual = 6.63037e-05, Final residual = 4.51048e-08, No Iterations 2
smoothSolver:  Solving for Uz, Initial residual = 2.81182e-05, Final residual = 1.37439e-08, No Iterations 2
GAMG:  Solving for p, Initial residual = 0.000778624, Final residual = 6.60174e-05, No Iterations 1
GAMG:  Solving for p, Initial residual = 0.000284542, Final residual = 1.12096e-05, No Iterations 2
GAMG:  Solving for p, Initial residual = 0.000146552, Final residual = 1.27712e-05, No Iterations 1
GAMG:  Solving for p, Initial residual = 7.3434e-05, Final residual = 3.46161e-06, No Iterations 2
GAMG:  Solving for p, Initial residual = 5.08131e-05, Final residual = 4.7169e-06, No Iterations 1
time step continuity errors : sum local = 0.000233442, global = 5.66586e-06, cumulative = -0.596988
ExecutionTime = 214.39 s  ClockTime = 214 s

Time = 1990

smoothSolver:  Solving for Ux, Initial residual = 7.13008e-05, Final residual = 3.92605e-08, No Iterations 2
smoothSolver:  Solving for Uy, Initial residual = 6.5407e-05, Final residual = 4.27875e-08, No Iterations 2
smoothSolver:  Solving for Uz, Initial residual = 2.80986e-05, Final residual = 1.37262e-08, No Iterations 2
GAMG:  Solving for p, Initial residual = 0.000777394, Final residual = 6.6483e-05, No Iterations 1
GAMG:  Solving for p, Initial residual = 0.000287039, Final residual = 1.13607e-05, No Iterations 2
GAMG:  Solving for p, Initial residual = 0.000149007, Final residual = 1.31391e-05, No Iterations 1
GAMG:  Solving for p, Initial residual = 7.44901e-05, Final residual = 3.65556e-06, No Iterations 2
GAMG:  Solving for p, Initial residual = 5.28819e-05, Final residual = 4.98094e-06, No Iterations 1
time step continuity errors : sum local = 0.000246524, global = 1.92916e-05, cumulative = -0.596968
ExecutionTime = 214.5 s  ClockTime = 214 s

Time = 1991

smoothSolver:  Solving for Ux, Initial residual = 7.03181e-05, Final residual = 3.82237e-08, No Iterations 2
smoothSolver:  Solving for Uy, Initial residual = 6.48053e-05, Final residual = 3.97235e-08, No Iterations 2
smoothSolver:  Solving for Uz, Initial residual = 2.81576e-05, Final residual = 1.33784e-08, No Iterations 2
GAMG:  Solving for p, Initial residual = 0.000789174, Final residual = 6.73342e-05, No Iterations 1
GAMG:  Solving for p, Initial residual = 0.000294345, Final residual = 1.16275e-05, No Iterations 2
GAMG:  Solving for p, Initial residual = 0.000153144, Final residual = 1.35166e-05, No Iterations 1
GAMG:  Solving for p, Initial residual = 7.65131e-05, Final residual = 3.91649e-06, No Iterations 2
GAMG:  Solving for p, Initial residual = 5.43357e-05, Final residual = 5.2181e-06, No Iterations 1
time step continuity errors : sum local = 0.000258291, global = 2.86422e-05, cumulative = -0.59694
ExecutionTime = 214.6 s  ClockTime = 214 s

Time = 1992

smoothSolver:  Solving for Ux, Initial residual = 6.96662e-05, Final residual = 3.80161e-08, No Iterations 2
smoothSolver:  Solving for Uy, Initial residual = 6.49068e-05, Final residual = 4.14429e-08, No Iterations 2
smoothSolver:  Solving for Uz, Initial residual = 2.81209e-05, Final residual = 1.38006e-08, No Iterations 2
GAMG:  Solving for p, Initial residual = 0.000782782, Final residual = 6.64366e-05, No Iterations 1
GAMG:  Solving for p, Initial residual = 0.000292898, Final residual = 1.16394e-05, No Iterations 2
GAMG:  Solving for p, Initial residual = 0.000154627, Final residual = 1.3706e-05, No Iterations 1
GAMG:  Solving for p, Initial residual = 7.80466e-05, Final residual = 4.11204e-06, No Iterations 2
GAMG:  Solving for p, Initial residual = 5.52041e-05, Final residual = 5.44393e-06, No Iterations 1
time step continuity errors : sum local = 0.000269456, global = 3.61634e-05, cumulative = -0.596904
ExecutionTime = 214.7 s  ClockTime = 214 s

Time = 1993

smoothSolver:  Solving for Ux, Initial residual = 7.0058e-05, Final residual = 3.90594e-08, No Iterations 2
smoothSolver:  Solving for Uy, Initial residual = 6.66577e-05, Final residual = 4.43892e-08, No Iterations 2
smoothSolver:  Solving for Uz, Initial residual = 2.80108e-05, Final residual = 1.40705e-08, No Iterations 2
GAMG:  Solving for p, Initial residual = 0.000771876, Final residual = 6.53289e-05, No Iterations 1
GAMG:  Solving for p, Initial residual = 0.000285217, Final residual = 1.10334e-05, No Iterations 2
GAMG:  Solving for p, Initial residual = 0.000149375, Final residual = 1.31681e-05, No Iterations 1
GAMG:  Solving for p, Initial residual = 7.51259e-05, Final residual = 3.87004e-06, No Iterations 2
GAMG:  Solving for p, Initial residual = 5.17056e-05, Final residual = 5.12514e-06, No Iterations 1
time step continuity errors : sum local = 0.00025371, global = 3.72021e-05, cumulative = -0.596866
ExecutionTime = 214.81 s  ClockTime = 215 s

Time = 1994

smoothSolver:  Solving for Ux, Initial residual = 7.00332e-05, Final residual = 4.00856e-08, No Iterations 2
smoothSolver:  Solving for Uy, Initial residual = 6.64203e-05, Final residual = 4.4228e-08, No Iterations 2
smoothSolver:  Solving for Uz, Initial residual = 2.74829e-05, Final residual = 1.35929e-08, No Iterations 2
GAMG:  Solving for p, Initial residual = 0.000788582, Final residual = 6.80561e-05, No Iterations 1
GAMG:  Solving for p, Initial residual = 0.000297159, Final residual = 1.10441e-05, No Iterations 2
GAMG:  Solving for p, Initial residual = 0.000154168, Final residual = 1.33155e-05, No Iterations 1
GAMG:  Solving for p, Initial residual = 7.68256e-05, Final residual = 3.66674e-06, No Iterations 2
GAMG:  Solving for p, Initial residual = 5.13635e-05, Final residual = 5.00455e-06, No Iterations 1
time step continuity errors : sum local = 0.000247717, global = 3.28815e-05, cumulative = -0.596834
ExecutionTime = 214.91 s  ClockTime = 215 s

Time = 1995

smoothSolver:  Solving for Ux, Initial residual = 6.89301e-05, Final residual = 3.99965e-08, No Iterations 2
smoothSolver:  Solving for Uy, Initial residual = 6.54325e-05, Final residual = 4.61313e-08, No Iterations 2
smoothSolver:  Solving for Uz, Initial residual = 2.64803e-05, Final residual = 1.30459e-08, No Iterations 2
GAMG:  Solving for p, Initial residual = 0.00080975, Final residual = 7.09259e-05, No Iterations 1
GAMG:  Solving for p, Initial residual = 0.000308165, Final residual = 1.20634e-05, No Iterations 2
GAMG:  Solving for p, Initial residual = 0.0001592, Final residual = 1.3675e-05, No Iterations 1
GAMG:  Solving for p, Initial residual = 7.74382e-05, Final residual = 3.61437e-06, No Iterations 2
GAMG:  Solving for p, Initial residual = 5.18361e-05, Final residual = 4.81018e-06, No Iterations 1
time step continuity errors : sum local = 0.000238109, global = 2.12153e-05, cumulative = -0.596812
ExecutionTime = 215.02 s  ClockTime = 215 s

Time = 1996

smoothSolver:  Solving for Ux, Initial residual = 6.84001e-05, Final residual = 3.86532e-08, No Iterations 2
smoothSolver:  Solving for Uy, Initial residual = 6.54421e-05, Final residual = 4.57417e-08, No Iterations 2
smoothSolver:  Solving for Uz, Initial residual = 2.59607e-05, Final residual = 1.28034e-08, No Iterations 2
GAMG:  Solving for p, Initial residual = 0.000803811, Final residual = 6.94335e-05, No Iterations 1
GAMG:  Solving for p, Initial residual = 0.000300314, Final residual = 1.20953e-05, No Iterations 2
GAMG:  Solving for p, Initial residual = 0.000156875, Final residual = 1.35724e-05, No Iterations 1
GAMG:  Solving for p, Initial residual = 7.67696e-05, Final residual = 3.64281e-06, No Iterations 2
GAMG:  Solving for p, Initial residual = 5.22505e-05, Final residual = 4.84328e-06, No Iterations 1
time step continuity errors : sum local = 0.000239739, global = 1.30414e-05, cumulative = -0.596799
ExecutionTime = 215.12 s  ClockTime = 215 s

Time = 1997

smoothSolver:  Solving for Ux, Initial residual = 6.87042e-05, Final residual = 3.73679e-08, No Iterations 2
smoothSolver:  Solving for Uy, Initial residual = 6.48135e-05, Final residual = 4.58713e-08, No Iterations 2
smoothSolver:  Solving for Uz, Initial residual = 2.6005e-05, Final residual = 1.32626e-08, No Iterations 2
GAMG:  Solving for p, Initial residual = 0.000787805, Final residual = 6.74255e-05, No Iterations 1
GAMG:  Solving for p, Initial residual = 0.000291911, Final residual = 1.18174e-05, No Iterations 2
GAMG:  Solving for p, Initial residual = 0.000152522, Final residual = 1.3416e-05, No Iterations 1
GAMG:  Solving for p, Initial residual = 7.55418e-05, Final residual = 3.79787e-06, No Iterations 2
GAMG:  Solving for p, Initial residual = 5.2464e-05, Final residual = 5.02015e-06, No Iterations 1
time step continuity errors : sum local = 0.000248515, global = 6.50277e-06, cumulative = -0.596793
ExecutionTime = 215.23 s  ClockTime = 215 s

Time = 1998

smoothSolver:  Solving for Ux, Initial residual = 6.78545e-05, Final residual = 3.73345e-08, No Iterations 2
smoothSolver:  Solving for Uy, Initial residual = 6.33302e-05, Final residual = 4.5378e-08, No Iterations 2
smoothSolver:  Solving for Uz, Initial residual = 2.6214e-05, Final residual = 1.43246e-08, No Iterations 2
GAMG:  Solving for p, Initial residual = 0.000762643, Final residual = 6.45057e-05, No Iterations 1
GAMG:  Solving for p, Initial residual = 0.000282645, Final residual = 1.17321e-05, No Iterations 2
GAMG:  Solving for p, Initial residual = 0.000149986, Final residual = 1.35936e-05, No Iterations 1
GAMG:  Solving for p, Initial residual = 7.6081e-05, Final residual = 4.08934e-06, No Iterations 2
GAMG:  Solving for p, Initial residual = 5.38946e-05, Final residual = 5.34528e-06, No Iterations 1
time step continuity errors : sum local = 0.000264569, global = 4.75247e-07, cumulative = -0.596792
ExecutionTime = 215.34 s  ClockTime = 215 s

Time = 1999

smoothSolver:  Solving for Ux, Initial residual = 6.86871e-05, Final residual = 4.00981e-08, No Iterations 2
smoothSolver:  Solving for Uy, Initial residual = 6.42823e-05, Final residual = 4.99153e-08, No Iterations 2
smoothSolver:  Solving for Uz, Initial residual = 2.65941e-05, Final residual = 1.51217e-08, No Iterations 2
GAMG:  Solving for p, Initial residual = 0.000777135, Final residual = 6.73064e-05, No Iterations 1
GAMG:  Solving for p, Initial residual = 0.000288491, Final residual = 1.21841e-05, No Iterations 2
GAMG:  Solving for p, Initial residual = 0.000155654, Final residual = 1.45274e-05, No Iterations 1
GAMG:  Solving for p, Initial residual = 7.93773e-05, Final residual = 4.42144e-06, No Iterations 2
GAMG:  Solving for p, Initial residual = 5.67176e-05, Final residual = 2.38723e-06, No Iterations 2
time step continuity errors : sum local = 0.00011816, global = -7.86682e-07, cumulative = -0.596793
ExecutionTime = 215.44 s  ClockTime = 215 s

Time = 2000

smoothSolver:  Solving for Ux, Initial residual = 6.80844e-05, Final residual = 4.1953e-08, No Iterations 2
smoothSolver:  Solving for Uy, Initial residual = 6.46482e-05, Final residual = 5.44588e-08, No Iterations 2
smoothSolver:  Solving for Uz, Initial residual = 2.68077e-05, Final residual = 1.60962e-08, No Iterations 2
GAMG:  Solving for p, Initial residual = 0.000771482, Final residual = 6.93361e-05, No Iterations 1
GAMG:  Solving for p, Initial residual = 0.000283813, Final residual = 1.17186e-05, No Iterations 2
GAMG:  Solving for p, Initial residual = 0.000155272, Final residual = 1.45578e-05, No Iterations 1
GAMG:  Solving for p, Initial residual = 7.94843e-05, Final residual = 4.31222e-06, No Iterations 2
GAMG:  Solving for p, Initial residual = 5.62313e-05, Final residual = 2.39014e-06, No Iterations 2
time step continuity errors : sum local = 0.00011829, global = 2.17875e-07, cumulative = -0.596793
ExecutionTime = 215.73 s  ClockTime = 216 s

End

