/*---------------------------------------------------------------------------*\
| =========                 |                                                 |
| \\      /  F ield         | OpenFOAM: The Open Source CFD Toolbox           |
|  \\    /   O peration     | Version:  2506                                  |
|   \\  /    A nd           | Website:  www.openfoam.com                      |
|    \\/     M anipulation  |                                                 |
\*---------------------------------------------------------------------------*/
Build  : _615aae61-20250627 OPENFOAM=2506 version=2506
Arch   : "LSB;label=32;scalar=64"
Exec   : simpleFoam -noFunctionObjects -case /home/ubuntu/fan_CFD_dataset/cases/fan_15
Date   : Nov 07 2025
Time   : 14:53:40
Host   : ip-172-31-37-87
PID    : 172334
I/O    : uncollated
Case   : /home/ubuntu/fan_CFD_dataset/cases/fan_15
nProcs : 1
trapFpe: Floating point exception trapping enabled (FOAM_SIGFPE).
fileModificationChecking : Monitoring run-time modified files using timeStampMaster (fileModificationSkew 5, maxFileModificationPolls 20)
allowSystemOperations : Allowing user-supplied system call operations

// * * * * * * * * * * * * * * * * * * * * * * * * * * * * * * * * * * * * * //
Create time

Create mesh for time = 0


SIMPLE: convergence criteria
    field U	 tolerance 1e-05
    field p	 tolerance 0.0001

Reading field p

Reading field U

Reading/calculating face flux field phi

Selecting incompressible transport model Newtonian
Selecting turbulence model type laminar
Selecting laminar stress model Stokes
No MRF models present

No finite volume options present

Starting time loop

Time = 1

smoothSolver:  Solving for Ux, Initial residual = 1, Final residual = 0.000300337, No Iterations 2
smoothSolver:  Solving for Uy, Initial residual = 1, Final residual = 0.000344584, No Iterations 2
smoothSolver:  Solving for Uz, Initial residual = 1, Final residual = 0.00050027, No Iterations 2
GAMG:  Solving for p, Initial residual = 1, Final residual = 0.077813, No Iterations 3
GAMG:  Solving for p, Initial residual = 0.10305, Final residual = 0.00692931, No Iterations 1
GAMG:  Solving for p, Initial residual = 0.0339526, Final residual = 0.00301055, No Iterations 1
GAMG:  Solving for p, Initial residual = 0.0179385, Final residual = 0.00167188, No Iterations 1
GAMG:  Solving for p, Initial residual = 0.0112139, Final residual = 0.00105894, No Iterations 1
time step continuity errors : sum local = 17.1621, global = -4.97883, cumulative = -4.97883
ExecutionTime = 0.21 s  ClockTime = 0 s

Time = 2

smoothSolver:  Solving for Ux, Initial residual = 0.0579656, Final residual = 2.66447e-05, No Iterations 2
smoothSolver:  Solving for Uy, Initial residual = 0.0590101, Final residual = 2.77166e-05, No Iterations 2
smoothSolver:  Solving for Uz, Initial residual = 0.177824, Final residual = 5.27314e-05, No Iterations 2
GAMG:  Solving for p, Initial residual = 0.437146, Final residual = 0.0423098, No Iterations 3
GAMG:  Solving for p, Initial residual = 0.0271716, Final residual = 0.00179981, No Iterations 1
GAMG:  Solving for p, Initial residual = 0.0106589, Final residual = 0.000887772, No Iterations 1
GAMG:  Solving for p, Initial residual = 0.00607327, Final residual = 0.000522602, No Iterations 1
GAMG:  Solving for p, Initial residual = 0.00394143, Final residual = 0.000343639, No Iterations 1
time step continuity errors : sum local = 17.3475, global = -3.60114, cumulative = -8.57997
ExecutionTime = 0.27 s  ClockTime = 0 s

Time = 3

smoothSolver:  Solving for Ux, Initial residual = 0.189685, Final residual = 8.11532e-05, No Iterations 2
smoothSolver:  Solving for Uy, Initial residual = 0.191766, Final residual = 8.48388e-05, No Iterations 2
smoothSolver:  Solving for Uz, Initial residual = 0.385901, Final residual = 0.000148208, No Iterations 2
GAMG:  Solving for p, Initial residual = 0.0427578, Final residual = 0.00278046, No Iterations 3
GAMG:  Solving for p, Initial residual = 0.0303684, Final residual = 0.00196961, No Iterations 1
GAMG:  Solving for p, Initial residual = 0.0116324, Final residual = 0.000979697, No Iterations 1
GAMG:  Solving for p, Initial residual = 0.00664899, Final residual = 0.000579963, No Iterations 1
GAMG:  Solving for p, Initial residual = 0.00433472, Final residual = 0.000384935, No Iterations 1
time step continuity errors : sum local = 9.84498, global = -2.16503, cumulative = -10.745
ExecutionTime = 0.33 s  ClockTime = 0 s

Time = 4

smoothSolver:  Solving for Ux, Initial residual = 0.17689, Final residual = 7.28642e-05, No Iterations 2
smoothSolver:  Solving for Uy, Initial residual = 0.177997, Final residual = 7.61481e-05, No Iterations 2
smoothSolver:  Solving for Uz, Initial residual = 0.42622, Final residual = 0.000173562, No Iterations 2
GAMG:  Solving for p, Initial residual = 0.0181318, Final residual = 0.00175633, No Iterations 1
GAMG:  Solving for p, Initial residual = 0.0091978, Final residual = 0.00087699, No Iterations 1
GAMG:  Solving for p, Initial residual = 0.00603761, Final residual = 0.000527977, No Iterations 1
GAMG:  Solving for p, Initial residual = 0.00406048, Final residual = 0.000347946, No Iterations 1
GAMG:  Solving for p, Initial residual = 0.00281079, Final residual = 0.000240045, No Iterations 1
time step continuity errors : sum local = 4.184, global = -0.878247, cumulative = -11.6232
ExecutionTime = 0.38 s  ClockTime = 0 s

Time = 5

smoothSolver:  Solving for Ux, Initial residual = 0.135882, Final residual = 5.44267e-05, No Iterations 2
smoothSolver:  Solving for Uy, Initial residual = 0.137007, Final residual = 5.61723e-05, No Iterations 2
smoothSolver:  Solving for Uz, Initial residual = 0.382747, Final residual = 0.000156128, No Iterations 2
GAMG:  Solving for p, Initial residual = 0.0180733, Final residual = 0.00122879, No Iterations 2
GAMG:  Solving for p, Initial residual = 0.0357347, Final residual = 0.00246415, No Iterations 1
GAMG:  Solving for p, Initial residual = 0.0166279, Final residual = 0.00140129, No Iterations 1
GAMG:  Solving for p, Initial residual = 0.0124918, Final residual = 0.00104379, No Iterations 1
GAMG:  Solving for p, Initial residual = 0.00910015, Final residual = 0.000777703, No Iterations 1
time step continuity errors : sum local = 3.88015, global = 0.948999, cumulative = -10.6742
ExecutionTime = 0.45 s  ClockTime = 0 s

Time = 6

smoothSolver:  Solving for Ux, Initial residual = 0.0951163, Final residual = 4.00669e-05, No Iterations 2
smoothSolver:  Solving for Uy, Initial residual = 0.097086, Final residual = 4.15875e-05, No Iterations 2
smoothSolver:  Solving for Uz, Initial residual = 0.294125, Final residual = 0.000118787, No Iterations 2
GAMG:  Solving for p, Initial residual = 0.0249152, Final residual = 0.00162535, No Iterations 3
GAMG:  Solving for p, Initial residual = 0.0958822, Final residual = 0.00627557, No Iterations 1
GAMG:  Solving for p, Initial residual = 0.0390137, Final residual = 0.00326892, No Iterations 1
GAMG:  Solving for p, Initial residual = 0.0209934, Final residual = 0.00183121, No Iterations 1
GAMG:  Solving for p, Initial residual = 0.0129374, Final residual = 0.00113589, No Iterations 1
time step continuity errors : sum local = 7.35683, global = 1.7015, cumulative = -8.97275
ExecutionTime = 0.51 s  ClockTime = 0 s

Time = 7

smoothSolver:  Solving for Ux, Initial residual = 0.0600857, Final residual = 2.78464e-05, No Iterations 2
smoothSolver:  Solving for Uy, Initial residual = 0.0630473, Final residual = 2.96047e-05, No Iterations 2
smoothSolver:  Solving for Uz, Initial residual = 0.184087, Final residual = 8.06516e-05, No Iterations 2
GAMG:  Solving for p, Initial residual = 0.0388292, Final residual = 0.00273393, No Iterations 3
GAMG:  Solving for p, Initial residual = 0.0621471, Final residual = 0.00403967, No Iterations 1
GAMG:  Solving for p, Initial residual = 0.0243394, Final residual = 0.00203483, No Iterations 1
GAMG:  Solving for p, Initial residual = 0.0134336, Final residual = 0.00116423, No Iterations 1
GAMG:  Solving for p, Initial residual = 0.00852933, Final residual = 0.00074663, No Iterations 1
time step continuity errors : sum local = 9.1781, global = 2.08624, cumulative = -6.88651
ExecutionTime = 0.56 s  ClockTime = 0 s

Time = 8

smoothSolver:  Solving for Ux, Initial residual = 0.0363747, Final residual = 1.94882e-05, No Iterations 2
smoothSolver:  Solving for Uy, Initial residual = 0.0396207, Final residual = 2.1018e-05, No Iterations 2
smoothSolver:  Solving for Uz, Initial residual = 0.0891027, Final residual = 4.71498e-05, No Iterations 2
GAMG:  Solving for p, Initial residual = 0.08246, Final residual = 0.0049629, No Iterations 3
GAMG:  Solving for p, Initial residual = 0.0499224, Final residual = 0.00323786, No Iterations 1
GAMG:  Solving for p, Initial residual = 0.0193744, Final residual = 0.00161876, No Iterations 1
GAMG:  Solving for p, Initial residual = 0.0108486, Final residual = 0.000941395, No Iterations 1
GAMG:  Solving for p, Initial residual = 0.00697853, Final residual = 0.00061255, No Iterations 1
time step continuity errors : sum local = 8.7488, global = 2.0456, cumulative = -4.84091
ExecutionTime = 0.62 s  ClockTime = 0 s

Time = 9

smoothSolver:  Solving for Ux, Initial residual = 0.0320961, Final residual = 1.87554e-05, No Iterations 2
smoothSolver:  Solving for Uy, Initial residual = 0.0336284, Final residual = 2.00774e-05, No Iterations 2
smoothSolver:  Solving for Uz, Initial residual = 0.0694844, Final residual = 3.8259e-05, No Iterations 2
GAMG:  Solving for p, Initial residual = 0.184499, Final residual = 0.0137813, No Iterations 2
GAMG:  Solving for p, Initial residual = 0.0406506, Final residual = 0.00267027, No Iterations 1
GAMG:  Solving for p, Initial residual = 0.0167558, Final residual = 0.00140844, No Iterations 1
GAMG:  Solving for p, Initial residual = 0.0106136, Final residual = 0.000879341, No Iterations 1
GAMG:  Solving for p, Initial residual = 0.00681798, Final residual = 0.000584974, No Iterations 1
time step continuity errors : sum local = 7.39514, global = 1.68561, cumulative = -3.1553
ExecutionTime = 0.69 s  ClockTime = 0 s

Time = 10

smoothSolver:  Solving for Ux, Initial residual = 0.0408349, Final residual = 2.20567e-05, No Iterations 2
smoothSolver:  Solving for Uy, Initial residual = 0.040553, Final residual = 2.28265e-05, No Iterations 2
smoothSolver:  Solving for Uz, Initial residual = 0.118857, Final residual = 5.27912e-05, No Iterations 2
GAMG:  Solving for p, Initial residual = 0.0733229, Final residual = 0.003397, No Iterations 2
GAMG:  Solving for p, Initial residual = 0.0303358, Final residual = 0.00194844, No Iterations 1
GAMG:  Solving for p, Initial residual = 0.0130449, Final residual = 0.00110677, No Iterations 1
GAMG:  Solving for p, Initial residual = 0.0086, Final residual = 0.000711966, No Iterations 1
GAMG:  Solving for p, Initial residual = 0.00561806, Final residual = 0.000486623, No Iterations 1
time step continuity errors : sum local = 4.49777, global = 0.921208, cumulative = -2.23409
ExecutionTime = 0.74 s  ClockTime = 0 s

Time = 11

smoothSolver:  Solving for Ux, Initial residual = 0.0502542, Final residual = 2.49334e-05, No Iterations 2
smoothSolver:  Solving for Uy, Initial residual = 0.0496463, Final residual = 2.56313e-05, No Iterations 2
smoothSolver:  Solving for Uz, Initial residual = 0.163859, Final residual = 6.71317e-05, No Iterations 2
GAMG:  Solving for p, Initial residual = 0.0548201, Final residual = 0.00461417, No Iterations 1
GAMG:  Solving for p, Initial residual = 0.0227653, Final residual = 0.00207926, No Iterations 1
GAMG:  Solving for p, Initial residual = 0.0120648, Final residual = 0.00115191, No Iterations 1
GAMG:  Solving for p, Initial residual = 0.00762941, Final residual = 0.000717497, No Iterations 1
GAMG:  Solving for p, Initial residual = 0.00506328, Final residual = 0.000476041, No Iterations 1
time step continuity errors : sum local = 2.34899, global = 0.142327, cumulative = -2.09177
ExecutionTime = 0.8 s  ClockTime = 0 s

Time = 12

smoothSolver:  Solving for Ux, Initial residual = 0.0532124, Final residual = 2.57888e-05, No Iterations 2
smoothSolver:  Solving for Uy, Initial residual = 0.053234, Final residual = 2.64907e-05, No Iterations 2
smoothSolver:  Solving for Uz, Initial residual = 0.176086, Final residual = 7.11185e-05, No Iterations 2
GAMG:  Solving for p, Initial residual = 0.0519952, Final residual = 0.00231352, No Iterations 2
GAMG:  Solving for p, Initial residual = 0.111255, Final residual = 0.00734195, No Iterations 1
GAMG:  Solving for p, Initial residual = 0.0533414, Final residual = 0.00447794, No Iterations 1
GAMG:  Solving for p, Initial residual = 0.0428384, Final residual = 0.00366946, No Iterations 1
GAMG:  Solving for p, Initial residual = 0.0340959, Final residual = 0.003034, No Iterations 1
time step continuity errors : sum local = 2.81546, global = -0.811676, cumulative = -2.90344
ExecutionTime = 0.86 s  ClockTime = 1 s

Time = 13

smoothSolver:  Solving for Ux, Initial residual = 0.0485453, Final residual = 2.45802e-05, No Iterations 2
smoothSolver:  Solving for Uy, Initial residual = 0.0503462, Final residual = 2.59119e-05, No Iterations 2
smoothSolver:  Solving for Uz, Initial residual = 0.150654, Final residual = 6.28498e-05, No Iterations 2
GAMG:  Solving for p, Initial residual = 0.0573948, Final residual = 0.00372008, No Iterations 2
GAMG:  Solving for p, Initial residual = 0.0996764, Final residual = 0.00663892, No Iterations 1
GAMG:  Solving for p, Initial residual = 0.0404376, Final residual = 0.00341457, No Iterations 1
GAMG:  Solving for p, Initial residual = 0.0230565, Final residual = 0.00190784, No Iterations 1
GAMG:  Solving for p, Initial residual = 0.0137952, Final residual = 0.00117968, No Iterations 1
time step continuity errors : sum local = 4.10353, global = -1.06042, cumulative = -3.96386
ExecutionTime = 0.92 s  ClockTime = 1 s

Time = 14

smoothSolver:  Solving for Ux, Initial residual = 0.0388891, Final residual = 2.11031e-05, No Iterations 2
smoothSolver:  Solving for Uy, Initial residual = 0.0423398, Final residual = 2.29635e-05, No Iterations 2
smoothSolver:  Solving for Uz, Initial residual = 0.0979762, Final residual = 4.55164e-05, No Iterations 2
GAMG:  Solving for p, Initial residual = 0.0782186, Final residual = 0.00594636, No Iterations 2
GAMG:  Solving for p, Initial residual = 0.0650546, Final residual = 0.00434072, No Iterations 1
GAMG:  Solving for p, Initial residual = 0.0264306, Final residual = 0.00224942, No Iterations 1
GAMG:  Solving for p, Initial residual = 0.0160558, Final residual = 0.001326, No Iterations 1
GAMG:  Solving for p, Initial residual = 0.00993061, Final residual = 0.000847127, No Iterations 1
time step continuity errors : sum local = 4.61406, global = -1.13433, cumulative = -5.09819
ExecutionTime = 0.98 s  ClockTime = 1 s

Time = 15

smoothSolver:  Solving for Ux, Initial residual = 0.0311818, Final residual = 1.77749e-05, No Iterations 2
smoothSolver:  Solving for Uy, Initial residual = 0.0345179, Final residual = 1.93819e-05, No Iterations 2
smoothSolver:  Solving for Uz, Initial residual = 0.0544168, Final residual = 3.16233e-05, No Iterations 2
GAMG:  Solving for p, Initial residual = 0.17139, Final residual = 0.0128302, No Iterations 2
GAMG:  Solving for p, Initial residual = 0.050557, Final residual = 0.0033914, No Iterations 1
GAMG:  Solving for p, Initial residual = 0.0206359, Final residual = 0.00177978, No Iterations 1
GAMG:  Solving for p, Initial residual = 0.0130166, Final residual = 0.00108585, No Iterations 1
GAMG:  Solving for p, Initial residual = 0.00821967, Final residual = 0.00070962, No Iterations 1
time step continuity errors : sum local = 4.24745, global = -0.995964, cumulative = -6.09415
ExecutionTime = 1.03 s  ClockTime = 1 s

Time = 16

smoothSolver:  Solving for Ux, Initial residual = 0.0290794, Final residual = 1.64503e-05, No Iterations 2
smoothSolver:  Solving for Uy, Initial residual = 0.0308723, Final residual = 1.77287e-05, No Iterations 2
smoothSolver:  Solving for Uz, Initial residual = 0.0603775, Final residual = 3.10959e-05, No Iterations 2
GAMG:  Solving for p, Initial residual = 0.137803, Final residual = 0.00838984, No Iterations 2
GAMG:  Solving for p, Initial residual = 0.0392326, Final residual = 0.00263431, No Iterations 1
GAMG:  Solving for p, Initial residual = 0.016307, Final residual = 0.00143332, No Iterations 1
GAMG:  Solving for p, Initial residual = 0.010705, Final residual = 0.000905396, No Iterations 1
GAMG:  Solving for p, Initial residual = 0.00689752, Final residual = 0.000606394, No Iterations 1
time step continuity errors : sum local = 3.22813, global = -0.719467, cumulative = -6.81362
ExecutionTime = 1.09 s  ClockTime = 1 s

Time = 17

smoothSolver:  Solving for Ux, Initial residual = 0.0295554, Final residual = 1.6112e-05, No Iterations 2
smoothSolver:  Solving for Uy, Initial residual = 0.0303106, Final residual = 1.68828e-05, No Iterations 2
smoothSolver:  Solving for Uz, Initial residual = 0.0838075, Final residual = 3.63883e-05, No Iterations 2
GAMG:  Solving for p, Initial residual = 0.0712068, Final residual = 0.00703668, No Iterations 1
GAMG:  Solving for p, Initial residual = 0.0291039, Final residual = 0.0013117, No Iterations 2
GAMG:  Solving for p, Initial residual = 0.0190541, Final residual = 0.00124967, No Iterations 1
GAMG:  Solving for p, Initial residual = 0.00898814, Final residual = 0.000792214, No Iterations 1
GAMG:  Solving for p, Initial residual = 0.00619378, Final residual = 0.000540268, No Iterations 1
time step continuity errors : sum local = 2.07159, global = -0.480087, cumulative = -7.29371
ExecutionTime = 1.16 s  ClockTime = 1 s

Time = 18

smoothSolver:  Solving for Ux, Initial residual = 0.0289517, Final residual = 1.5293e-05, No Iterations 2
smoothSolver:  Solving for Uy, Initial residual = 0.0297857, Final residual = 1.59999e-05, No Iterations 2
smoothSolver:  Solving for Uz, Initial residual = 0.0907361, Final residual = 3.72288e-05, No Iterations 2
GAMG:  Solving for p, Initial residual = 0.0556492, Final residual = 0.00547555, No Iterations 1
GAMG:  Solving for p, Initial residual = 0.0266673, Final residual = 0.00262217, No Iterations 1
GAMG:  Solving for p, Initial residual = 0.015576, Final residual = 0.00155446, No Iterations 1
GAMG:  Solving for p, Initial residual = 0.0103957, Final residual = 0.00100787, No Iterations 1
GAMG:  Solving for p, Initial residual = 0.00702112, Final residual = 0.000681888, No Iterations 1
time step continuity errors : sum local = 1.45765, global = 0.121436, cumulative = -7.17227
ExecutionTime = 1.21 s  ClockTime = 1 s

Time = 19

smoothSolver:  Solving for Ux, Initial residual = 0.0264273, Final residual = 1.40971e-05, No Iterations 2
smoothSolver:  Solving for Uy, Initial residual = 0.0277412, Final residual = 1.47975e-05, No Iterations 2
smoothSolver:  Solving for Uz, Initial residual = 0.0811847, Final residual = 3.38427e-05, No Iterations 2
GAMG:  Solving for p, Initial residual = 0.0522237, Final residual = 0.00241289, No Iterations 2
GAMG:  Solving for p, Initial residual = 0.120858, Final residual = 0.00820747, No Iterations 1
GAMG:  Solving for p, Initial residual = 0.0546595, Final residual = 0.00475827, No Iterations 1
GAMG:  Solving for p, Initial residual = 0.0422278, Final residual = 0.0037651, No Iterations 1
GAMG:  Solving for p, Initial residual = 0.0322393, Final residual = 0.00299476, No Iterations 1
time step continuity errors : sum local = 1.56015, global = 0.456485, cumulative = -6.71579
ExecutionTime = 1.27 s  ClockTime = 1 s

Time = 20

smoothSolver:  Solving for Ux, Initial residual = 0.0228438, Final residual = 1.26471e-05, No Iterations 2
smoothSolver:  Solving for Uy, Initial residual = 0.0245435, Final residual = 1.33648e-05, No Iterations 2
smoothSolver:  Solving for Uz, Initial residual = 0.061644, Final residual = 2.73068e-05, No Iterations 2
GAMG:  Solving for p, Initial residual = 0.0560411, Final residual = 0.00344167, No Iterations 2
GAMG:  Solving for p, Initial residual = 0.106053, Final residual = 0.00715095, No Iterations 1
GAMG:  Solving for p, Initial residual = 0.0418523, Final residual = 0.00359934, No Iterations 1
GAMG:  Solving for p, Initial residual = 0.0240005, Final residual = 0.00203308, No Iterations 1
GAMG:  Solving for p, Initial residual = 0.0144887, Final residual = 0.0012695, No Iterations 1
time step continuity errors : sum local = 1.92608, global = 0.543117, cumulative = -6.17267
ExecutionTime = 1.32 s  ClockTime = 1 s

Time = 21

smoothSolver:  Solving for Ux, Initial residual = 0.0196976, Final residual = 1.113e-05, No Iterations 2
smoothSolver:  Solving for Uy, Initial residual = 0.0214631, Final residual = 1.18979e-05, No Iterations 2
smoothSolver:  Solving for Uz, Initial residual = 0.0403089, Final residual = 2.0226e-05, No Iterations 2
GAMG:  Solving for p, Initial residual = 0.070936, Final residual = 0.00491137, No Iterations 2
GAMG:  Solving for p, Initial residual = 0.0693914, Final residual = 0.00464519, No Iterations 1
GAMG:  Solving for p, Initial residual = 0.0276362, Final residual = 0.00238248, No Iterations 1
GAMG:  Solving for p, Initial residual = 0.0168498, Final residual = 0.00139696, No Iterations 1
GAMG:  Solving for p, Initial residual = 0.010439, Final residual = 0.000895559, No Iterations 1
time step continuity errors : sum local = 2.02312, global = 0.527368, cumulative = -5.6453
ExecutionTime = 1.39 s  ClockTime = 1 s

Time = 22

smoothSolver:  Solving for Ux, Initial residual = 0.0179508, Final residual = 1.00247e-05, No Iterations 2
smoothSolver:  Solving for Uy, Initial residual = 0.0193994, Final residual = 1.08104e-05, No Iterations 2
smoothSolver:  Solving for Uz, Initial residual = 0.0277507, Final residual = 1.58951e-05, No Iterations 2
GAMG:  Solving for p, Initial residual = 0.119311, Final residual = 0.00780618, No Iterations 2
GAMG:  Solving for p, Initial residual = 0.0533866, Final residual = 0.00356664, No Iterations 1
GAMG:  Solving for p, Initial residual = 0.0215077, Final residual = 0.00186988, No Iterations 1
GAMG:  Solving for p, Initial residual = 0.0136772, Final residual = 0.00113153, No Iterations 1
GAMG:  Solving for p, Initial residual = 0.00863232, Final residual = 0.000739881, No Iterations 1
time step continuity errors : sum local = 1.8008, global = 0.436578, cumulative = -5.20872
ExecutionTime = 1.45 s  ClockTime = 1 s

Time = 23

smoothSolver:  Solving for Ux, Initial residual = 0.017406, Final residual = 9.41568e-06, No Iterations 2
smoothSolver:  Solving for Uy, Initial residual = 0.0184732, Final residual = 1.0044e-05, No Iterations 2
smoothSolver:  Solving for Uz, Initial residual = 0.0288267, Final residual = 1.5142e-05, No Iterations 2
GAMG:  Solving for p, Initial residual = 0.174653, Final residual = 0.00949959, No Iterations 2
GAMG:  Solving for p, Initial residual = 0.0424179, Final residual = 0.00284438, No Iterations 1
GAMG:  Solving for p, Initial residual = 0.0175163, Final residual = 0.00156316, No Iterations 1
GAMG:  Solving for p, Initial residual = 0.0116263, Final residual = 0.000973531, No Iterations 1
GAMG:  Solving for p, Initial residual = 0.0074505, Final residual = 0.000650741, No Iterations 1
time step continuity errors : sum local = 1.37255, global = 0.300192, cumulative = -4.90853
ExecutionTime = 1.5 s  ClockTime = 1 s

Time = 24

smoothSolver:  Solving for Ux, Initial residual = 0.0172187, Final residual = 8.96301e-06, No Iterations 2
smoothSolver:  Solving for Uy, Initial residual = 0.0181953, Final residual = 9.59236e-06, No Iterations 2
smoothSolver:  Solving for Uz, Initial residual = 0.0343108, Final residual = 1.59969e-05, No Iterations 2
GAMG:  Solving for p, Initial residual = 0.0932511, Final residual = 0.0036484, No Iterations 2
GAMG:  Solving for p, Initial residual = 0.037641, Final residual = 0.00255642, No Iterations 1
GAMG:  Solving for p, Initial residual = 0.0160524, Final residual = 0.00147135, No Iterations 1
GAMG:  Solving for p, Initial residual = 0.0104875, Final residual = 0.000919634, No Iterations 1
GAMG:  Solving for p, Initial residual = 0.00680619, Final residual = 0.000624128, No Iterations 1
time step continuity errors : sum local = 0.907433, global = 0.172621, cumulative = -4.73591
ExecutionTime = 1.56 s  ClockTime = 1 s

Time = 25

smoothSolver:  Solving for Ux, Initial residual = 0.016753, Final residual = 8.53944e-06, No Iterations 2
smoothSolver:  Solving for Uy, Initial residual = 0.0179377, Final residual = 9.20936e-06, No Iterations 2
smoothSolver:  Solving for Uz, Initial residual = 0.0358156, Final residual = 1.59738e-05, No Iterations 2
GAMG:  Solving for p, Initial residual = 0.0756553, Final residual = 0.00254873, No Iterations 2
GAMG:  Solving for p, Initial residual = 0.0502556, Final residual = 0.00350024, No Iterations 1
GAMG:  Solving for p, Initial residual = 0.0224349, Final residual = 0.0020015, No Iterations 1
GAMG:  Solving for p, Initial residual = 0.0145449, Final residual = 0.00133558, No Iterations 1
GAMG:  Solving for p, Initial residual = 0.00972948, Final residual = 0.000921587, No Iterations 1
time step continuity errors : sum local = 0.69356, global = -0.0605208, cumulative = -4.79643
ExecutionTime = 1.62 s  ClockTime = 1 s

Time = 26

smoothSolver:  Solving for Ux, Initial residual = 0.0159388, Final residual = 8.10196e-06, No Iterations 2
smoothSolver:  Solving for Uy, Initial residual = 0.0173996, Final residual = 8.8149e-06, No Iterations 2
smoothSolver:  Solving for Uz, Initial residual = 0.0323277, Final residual = 1.46682e-05, No Iterations 2
GAMG:  Solving for p, Initial residual = 0.0745077, Final residual = 0.00330251, No Iterations 2
GAMG:  Solving for p, Initial residual = 0.120666, Final residual = 0.00826201, No Iterations 1
GAMG:  Solving for p, Initial residual = 0.0482954, Final residual = 0.00430563, No Iterations 1
GAMG:  Solving for p, Initial residual = 0.0282312, Final residual = 0.00255692, No Iterations 1
GAMG:  Solving for p, Initial residual = 0.0176558, Final residual = 0.00166416, No Iterations 1
time step continuity errors : sum local = 0.85323, global = -0.233597, cumulative = -5.03003
ExecutionTime = 1.68 s  ClockTime = 1 s

Time = 27

smoothSolver:  Solving for Ux, Initial residual = 0.0149596, Final residual = 7.70988e-06, No Iterations 2
smoothSolver:  Solving for Uy, Initial residual = 0.0166486, Final residual = 8.50619e-06, No Iterations 2
smoothSolver:  Solving for Uz, Initial residual = 0.0257905, Final residual = 1.2494e-05, No Iterations 2
GAMG:  Solving for p, Initial residual = 0.0854184, Final residual = 0.00447583, No Iterations 2
GAMG:  Solving for p, Initial residual = 0.0660932, Final residual = 0.00448273, No Iterations 1
GAMG:  Solving for p, Initial residual = 0.0265321, Final residual = 0.00233535, No Iterations 1
GAMG:  Solving for p, Initial residual = 0.0162929, Final residual = 0.00142104, No Iterations 1
GAMG:  Solving for p, Initial residual = 0.0103329, Final residual = 0.000932659, No Iterations 1
time step continuity errors : sum local = 0.967607, global = -0.278654, cumulative = -5.30868
ExecutionTime = 1.73 s  ClockTime = 1 s

Time = 28

smoothSolver:  Solving for Ux, Initial residual = 0.0140847, Final residual = 7.31292e-06, No Iterations 2
smoothSolver:  Solving for Uy, Initial residual = 0.0158104, Final residual = 8.14174e-06, No Iterations 2
smoothSolver:  Solving for Uz, Initial residual = 0.0200401, Final residual = 1.05464e-05, No Iterations 2
GAMG:  Solving for p, Initial residual = 0.120731, Final residual = 0.00658517, No Iterations 2
GAMG:  Solving for p, Initial residual = 0.0498641, Final residual = 0.00333982, No Iterations 1
GAMG:  Solving for p, Initial residual = 0.0201162, Final residual = 0.00176109, No Iterations 1
GAMG:  Solving for p, Initial residual = 0.0127689, Final residual = 0.00108573, No Iterations 1
GAMG:  Solving for p, Initial residual = 0.00815595, Final residual = 0.000717227, No Iterations 1
time step continuity errors : sum local = 0.961111, global = -0.264217, cumulative = -5.5729
ExecutionTime = 1.8 s  ClockTime = 1 s

Time = 29

smoothSolver:  Solving for Ux, Initial residual = 0.0134678, Final residual = 7.06444e-06, No Iterations 2
smoothSolver:  Solving for Uy, Initial residual = 0.0150853, Final residual = 7.85729e-06, No Iterations 2
smoothSolver:  Solving for Uz, Initial residual = 0.0183319, Final residual = 9.74645e-06, No Iterations 2
GAMG:  Solving for p, Initial residual = 0.152272, Final residual = 0.00780055, No Iterations 2
GAMG:  Solving for p, Initial residual = 0.0396535, Final residual = 0.00261739, No Iterations 1
GAMG:  Solving for p, Initial residual = 0.0162065, Final residual = 0.00143018, No Iterations 1
GAMG:  Solving for p, Initial residual = 0.0106847, Final residual = 0.000894567, No Iterations 1
GAMG:  Solving for p, Initial residual = 0.00687776, Final residual = 0.000598553, No Iterations 1
time step continuity errors : sum local = 0.839666, global = -0.211171, cumulative = -5.78407
ExecutionTime = 1.86 s  ClockTime = 2 s

Time = 30

smoothSolver:  Solving for Ux, Initial residual = 0.0130355, Final residual = 6.90884e-06, No Iterations 2
smoothSolver:  Solving for Uy, Initial residual = 0.0145161, Final residual = 7.65231e-06, No Iterations 2
smoothSolver:  Solving for Uz, Initial residual = 0.0198672, Final residual = 9.93092e-06, No Iterations 2
GAMG:  Solving for p, Initial residual = 0.0881363, Final residual = 0.00871855, No Iterations 1
GAMG:  Solving for p, Initial residual = 0.0316774, Final residual = 0.00147153, No Iterations 2
GAMG:  Solving for p, Initial residual = 0.0204446, Final residual = 0.00129338, No Iterations 1
GAMG:  Solving for p, Initial residual = 0.00932281, Final residual = 0.000803085, No Iterations 1
GAMG:  Solving for p, Initial residual = 0.00637491, Final residual = 0.000537941, No Iterations 1
time step continuity errors : sum local = 0.675729, global = -0.178317, cumulative = -5.96239
ExecutionTime = 1.91 s  ClockTime = 2 s

Time = 31

smoothSolver:  Solving for Ux, Initial residual = 0.0126576, Final residual = 6.71188e-06, No Iterations 2
smoothSolver:  Solving for Uy, Initial residual = 0.0140367, Final residual = 7.40372e-06, No Iterations 2
smoothSolver:  Solving for Uz, Initial residual = 0.0216658, Final residual = 1.00849e-05, No Iterations 2
GAMG:  Solving for p, Initial residual = 0.0669372, Final residual = 0.00662276, No Iterations 1
GAMG:  Solving for p, Initial residual = 0.0269934, Final residual = 0.0010312, No Iterations 2
GAMG:  Solving for p, Initial residual = 0.0166914, Final residual = 0.00111108, No Iterations 1
GAMG:  Solving for p, Initial residual = 0.00809913, Final residual = 0.000715803, No Iterations 1
GAMG:  Solving for p, Initial residual = 0.00548631, Final residual = 0.000482714, No Iterations 1
time step continuity errors : sum local = 0.472534, global = -0.101168, cumulative = -6.06356
ExecutionTime = 1.97 s  ClockTime = 2 s

Time = 32

smoothSolver:  Solving for Ux, Initial residual = 0.0122237, Final residual = 6.51995e-06, No Iterations 2
smoothSolver:  Solving for Uy, Initial residual = 0.0135806, Final residual = 7.23468e-06, No Iterations 2
smoothSolver:  Solving for Uz, Initial residual = 0.0217654, Final residual = 9.86832e-06, No Iterations 2
GAMG:  Solving for p, Initial residual = 0.0593837, Final residual = 0.00570799, No Iterations 1
GAMG:  Solving for p, Initial residual = 0.0262787, Final residual = 0.00261234, No Iterations 1
GAMG:  Solving for p, Initial residual = 0.0154952, Final residual = 0.00154583, No Iterations 1
GAMG:  Solving for p, Initial residual = 0.0104856, Final residual = 0.000998016, No Iterations 1
GAMG:  Solving for p, Initial residual = 0.00711208, Final residual = 0.000678123, No Iterations 1
time step continuity errors : sum local = 0.472891, global = 0.0600396, cumulative = -6.00352
ExecutionTime = 2.02 s  ClockTime = 2 s

Time = 33

smoothSolver:  Solving for Ux, Initial residual = 0.0117793, Final residual = 6.27218e-06, No Iterations 2
smoothSolver:  Solving for Uy, Initial residual = 0.0131237, Final residual = 7.05494e-06, No Iterations 2
smoothSolver:  Solving for Uz, Initial residual = 0.0202099, Final residual = 9.28729e-06, No Iterations 2
GAMG:  Solving for p, Initial residual = 0.0575646, Final residual = 0.00544419, No Iterations 1
GAMG:  Solving for p, Initial residual = 0.0315622, Final residual = 0.00151061, No Iterations 2
GAMG:  Solving for p, Initial residual = 0.0378902, Final residual = 0.00249697, No Iterations 1
GAMG:  Solving for p, Initial residual = 0.0180111, Final residual = 0.00159204, No Iterations 1
GAMG:  Solving for p, Initial residual = 0.0124495, Final residual = 0.00114356, No Iterations 1
time step continuity errors : sum local = 0.481707, global = 0.12551, cumulative = -5.87801
ExecutionTime = 2.09 s  ClockTime = 2 s

Time = 34

smoothSolver:  Solving for Ux, Initial residual = 0.0114311, Final residual = 6.05818e-06, No Iterations 2
smoothSolver:  Solving for Uy, Initial residual = 0.0127053, Final residual = 6.85175e-06, No Iterations 2
smoothSolver:  Solving for Uz, Initial residual = 0.0177196, Final residual = 8.50879e-06, No Iterations 2
GAMG:  Solving for p, Initial residual = 0.0601157, Final residual = 0.00578057, No Iterations 1
GAMG:  Solving for p, Initial residual = 0.0415307, Final residual = 0.00207144, No Iterations 2
GAMG:  Solving for p, Initial residual = 0.055967, Final residual = 0.00359617, No Iterations 1
GAMG:  Solving for p, Initial residual = 0.0247532, Final residual = 0.002173, No Iterations 1
GAMG:  Solving for p, Initial residual = 0.0155142, Final residual = 0.00139096, No Iterations 1
time step continuity errors : sum local = 0.523584, global = 0.152939, cumulative = -5.72507
ExecutionTime = 2.15 s  ClockTime = 2 s

Time = 35

smoothSolver:  Solving for Ux, Initial residual = 0.0112164, Final residual = 5.87981e-06, No Iterations 2
smoothSolver:  Solving for Uy, Initial residual = 0.0123371, Final residual = 6.61319e-06, No Iterations 2
smoothSolver:  Solving for Uz, Initial residual = 0.0154763, Final residual = 7.75136e-06, No Iterations 2
GAMG:  Solving for p, Initial residual = 0.0673973, Final residual = 0.00636079, No Iterations 1
GAMG:  Solving for p, Initial residual = 0.0496284, Final residual = 0.00247325, No Iterations 2
GAMG:  Solving for p, Initial residual = 0.0414459, Final residual = 0.00262805, No Iterations 1
GAMG:  Solving for p, Initial residual = 0.01835, Final residual = 0.00160768, No Iterations 1
GAMG:  Solving for p, Initial residual = 0.0118137, Final residual = 0.00103898, No Iterations 1
time step continuity errors : sum local = 0.510786, global = 0.152425, cumulative = -5.57264
ExecutionTime = 2.2 s  ClockTime = 2 s

Time = 36

smoothSolver:  Solving for Ux, Initial residual = 0.0110729, Final residual = 5.72986e-06, No Iterations 2
smoothSolver:  Solving for Uy, Initial residual = 0.0120436, Final residual = 6.36582e-06, No Iterations 2
smoothSolver:  Solving for Uz, Initial residual = 0.0142586, Final residual = 7.24289e-06, No Iterations 2
GAMG:  Solving for p, Initial residual = 0.0792812, Final residual = 0.00714081, No Iterations 1
GAMG:  Solving for p, Initial residual = 0.0490476, Final residual = 0.00237986, No Iterations 2
GAMG:  Solving for p, Initial residual = 0.0349489, Final residual = 0.00220486, No Iterations 1
GAMG:  Solving for p, Initial residual = 0.0156949, Final residual = 0.00137068, No Iterations 1
GAMG:  Solving for p, Initial residual = 0.0102541, Final residual = 0.000893405, No Iterations 1
time step continuity errors : sum local = 0.451427, global = 0.133944, cumulative = -5.4387
ExecutionTime = 2.26 s  ClockTime = 2 s

Time = 37

smoothSolver:  Solving for Ux, Initial residual = 0.010929, Final residual = 5.57757e-06, No Iterations 2
smoothSolver:  Solving for Uy, Initial residual = 0.0117989, Final residual = 6.17144e-06, No Iterations 2
smoothSolver:  Solving for Uz, Initial residual = 0.0138756, Final residual = 6.92832e-06, No Iterations 2
GAMG:  Solving for p, Initial residual = 0.0938828, Final residual = 0.0082353, No Iterations 1
GAMG:  Solving for p, Initial residual = 0.0439191, Final residual = 0.00191943, No Iterations 2
GAMG:  Solving for p, Initial residual = 0.0306131, Final residual = 0.00194992, No Iterations 1
GAMG:  Solving for p, Initial residual = 0.01421, Final residual = 0.00125435, No Iterations 1
GAMG:  Solving for p, Initial residual = 0.00939551, Final residual = 0.000823225, No Iterations 1
time step continuity errors : sum local = 0.361296, global = 0.102007, cumulative = -5.33669
ExecutionTime = 2.33 s  ClockTime = 2 s

Time = 38

smoothSolver:  Solving for Ux, Initial residual = 0.010752, Final residual = 5.47864e-06, No Iterations 2
smoothSolver:  Solving for Uy, Initial residual = 0.0115838, Final residual = 5.98615e-06, No Iterations 2
smoothSolver:  Solving for Uz, Initial residual = 0.0137367, Final residual = 6.67355e-06, No Iterations 2
GAMG:  Solving for p, Initial residual = 0.106391, Final residual = 0.00918944, No Iterations 1
GAMG:  Solving for p, Initial residual = 0.0413864, Final residual = 0.00398205, No Iterations 1
GAMG:  Solving for p, Initial residual = 0.0236145, Final residual = 0.00232093, No Iterations 1
GAMG:  Solving for p, Initial residual = 0.0163118, Final residual = 0.00155486, No Iterations 1
GAMG:  Solving for p, Initial residual = 0.0107229, Final residual = 0.00098911, No Iterations 1
time step continuity errors : sum local = 0.313753, global = 0.0616098, cumulative = -5.27508
ExecutionTime = 2.39 s  ClockTime = 2 s

Time = 39

smoothSolver:  Solving for Ux, Initial residual = 0.0105316, Final residual = 5.36284e-06, No Iterations 2
smoothSolver:  Solving for Uy, Initial residual = 0.0113519, Final residual = 5.85718e-06, No Iterations 2
smoothSolver:  Solving for Uz, Initial residual = 0.0134565, Final residual = 6.45453e-06, No Iterations 2
GAMG:  Solving for p, Initial residual = 0.109388, Final residual = 0.00909535, No Iterations 1
GAMG:  Solving for p, Initial residual = 0.0386131, Final residual = 0.00360353, No Iterations 1
GAMG:  Solving for p, Initial residual = 0.0196494, Final residual = 0.00194663, No Iterations 1
GAMG:  Solving for p, Initial residual = 0.0123353, Final residual = 0.00120615, No Iterations 1
GAMG:  Solving for p, Initial residual = 0.00829649, Final residual = 0.000799308, No Iterations 1
time step continuity errors : sum local = 0.291223, global = -0.0376679, cumulative = -5.31275
ExecutionTime = 2.44 s  ClockTime = 2 s

Time = 40

smoothSolver:  Solving for Ux, Initial residual = 0.0102961, Final residual = 5.23474e-06, No Iterations 2
smoothSolver:  Solving for Uy, Initial residual = 0.0111089, Final residual = 5.76117e-06, No Iterations 2
smoothSolver:  Solving for Uz, Initial residual = 0.0130522, Final residual = 6.26315e-06, No Iterations 2
GAMG:  Solving for p, Initial residual = 0.103996, Final residual = 0.00834214, No Iterations 1
GAMG:  Solving for p, Initial residual = 0.0346375, Final residual = 0.00324498, No Iterations 1
GAMG:  Solving for p, Initial residual = 0.0180619, Final residual = 0.00178035, No Iterations 1
GAMG:  Solving for p, Initial residual = 0.0116116, Final residual = 0.00110612, No Iterations 1
GAMG:  Solving for p, Initial residual = 0.00777157, Final residual = 0.000738236, No Iterations 1
time step continuity errors : sum local = 0.340433, global = -0.0859529, cumulative = -5.3987
ExecutionTime = 2.51 s  ClockTime = 2 s

Time = 41

smoothSolver:  Solving for Ux, Initial residual = 0.0100753, Final residual = 5.07811e-06, No Iterations 2
smoothSolver:  Solving for Uy, Initial residual = 0.0108765, Final residual = 5.64544e-06, No Iterations 2
smoothSolver:  Solving for Uz, Initial residual = 0.0126247, Final residual = 6.08974e-06, No Iterations 2
GAMG:  Solving for p, Initial residual = 0.093221, Final residual = 0.00735641, No Iterations 1
GAMG:  Solving for p, Initial residual = 0.0309628, Final residual = 0.00302404, No Iterations 1
GAMG:  Solving for p, Initial residual = 0.0170005, Final residual = 0.00165258, No Iterations 1
GAMG:  Solving for p, Initial residual = 0.0109481, Final residual = 0.00103012, No Iterations 1
GAMG:  Solving for p, Initial residual = 0.00733393, Final residual = 0.000684351, No Iterations 1
time step continuity errors : sum local = 0.372507, global = -0.101027, cumulative = -5.49973
ExecutionTime = 2.56 s  ClockTime = 2 s

Time = 42

smoothSolver:  Solving for Ux, Initial residual = 0.00988405, Final residual = 4.94569e-06, No Iterations 2
smoothSolver:  Solving for Uy, Initial residual = 0.0106458, Final residual = 5.51679e-06, No Iterations 2
smoothSolver:  Solving for Uz, Initial residual = 0.0123157, Final residual = 5.97064e-06, No Iterations 2
GAMG:  Solving for p, Initial residual = 0.0817723, Final residual = 0.00641194, No Iterations 1
GAMG:  Solving for p, Initial residual = 0.0278996, Final residual = 0.00275329, No Iterations 1
GAMG:  Solving for p, Initial residual = 0.0156107, Final residual = 0.00150634, No Iterations 1
GAMG:  Solving for p, Initial residual = 0.0100873, Final residual = 0.000945161, No Iterations 1
GAMG:  Solving for p, Initial residual = 0.00681132, Final residual = 0.0006293, No Iterations 1
time step continuity errors : sum local = 0.373548, global = -0.10337, cumulative = -5.6031
ExecutionTime = 2.61 s  ClockTime = 2 s

Time = 43

smoothSolver:  Solving for Ux, Initial residual = 0.0097202, Final residual = 4.83333e-06, No Iterations 2
smoothSolver:  Solving for Uy, Initial residual = 0.0104469, Final residual = 5.38866e-06, No Iterations 2
smoothSolver:  Solving for Uz, Initial residual = 0.0121569, Final residual = 5.86805e-06, No Iterations 2
GAMG:  Solving for p, Initial residual = 0.0723232, Final residual = 0.00563438, No Iterations 1
GAMG:  Solving for p, Initial residual = 0.0253277, Final residual = 0.00244752, No Iterations 1
GAMG:  Solving for p, Initial residual = 0.0138851, Final residual = 0.00135312, No Iterations 1
GAMG:  Solving for p, Initial residual = 0.00905308, Final residual = 0.000854648, No Iterations 1
GAMG:  Solving for p, Initial residual = 0.0061885, Final residual = 0.000572955, No Iterations 1
time step continuity errors : sum local = 0.347303, global = -0.0960214, cumulative = -5.69912
ExecutionTime = 2.67 s  ClockTime = 2 s

Time = 44

smoothSolver:  Solving for Ux, Initial residual = 0.00958025, Final residual = 4.75059e-06, No Iterations 2
smoothSolver:  Solving for Uy, Initial residual = 0.0102614, Final residual = 5.25444e-06, No Iterations 2
smoothSolver:  Solving for Uz, Initial residual = 0.0121075, Final residual = 5.79954e-06, No Iterations 2
GAMG:  Solving for p, Initial residual = 0.0658653, Final residual = 0.00507743, No Iterations 1
GAMG:  Solving for p, Initial residual = 0.0235042, Final residual = 0.00218444, No Iterations 1
GAMG:  Solving for p, Initial residual = 0.0122028, Final residual = 0.0012004, No Iterations 1
GAMG:  Solving for p, Initial residual = 0.00783719, Final residual = 0.000758552, No Iterations 1
GAMG:  Solving for p, Initial residual = 0.00544046, Final residual = 0.000511862, No Iterations 1
time step continuity errors : sum local = 0.300302, global = -0.0820919, cumulative = -5.78121
ExecutionTime = 2.73 s  ClockTime = 2 s

Time = 45

smoothSolver:  Solving for Ux, Initial residual = 0.00944171, Final residual = 4.69825e-06, No Iterations 2
smoothSolver:  Solving for Uy, Initial residual = 0.0100981, Final residual = 5.20818e-06, No Iterations 2
smoothSolver:  Solving for Uz, Initial residual = 0.0120246, Final residual = 5.73054e-06, No Iterations 2
GAMG:  Solving for p, Initial residual = 0.0612936, Final residual = 0.00463717, No Iterations 1
GAMG:  Solving for p, Initial residual = 0.0222274, Final residual = 0.00200926, No Iterations 1
GAMG:  Solving for p, Initial residual = 0.0109784, Final residual = 0.00108414, No Iterations 1
GAMG:  Solving for p, Initial residual = 0.00666688, Final residual = 0.00066519, No Iterations 1
GAMG:  Solving for p, Initial residual = 0.00451913, Final residual = 0.000443498, No Iterations 1
time step continuity errors : sum local = 0.245947, global = -0.0595938, cumulative = -5.84081
ExecutionTime = 2.78 s  ClockTime = 2 s

Time = 46

smoothSolver:  Solving for Ux, Initial residual = 0.00931166, Final residual = 4.63705e-06, No Iterations 2
smoothSolver:  Solving for Uy, Initial residual = 0.00993239, Final residual = 5.12765e-06, No Iterations 2
smoothSolver:  Solving for Uz, Initial residual = 0.0118612, Final residual = 5.65353e-06, No Iterations 2
GAMG:  Solving for p, Initial residual = 0.0591042, Final residual = 0.00436045, No Iterations 1
GAMG:  Solving for p, Initial residual = 0.0216673, Final residual = 0.0018887, No Iterations 1
GAMG:  Solving for p, Initial residual = 0.0105902, Final residual = 0.00102933, No Iterations 1
GAMG:  Solving for p, Initial residual = 0.00626143, Final residual = 0.000225712, No Iterations 2
GAMG:  Solving for p, Initial residual = 0.00463674, Final residual = 0.000317637, No Iterations 1
time step continuity errors : sum local = 0.166585, global = -0.00311028, cumulative = -5.84392
ExecutionTime = 2.84 s  ClockTime = 3 s

Time = 47

smoothSolver:  Solving for Ux, Initial residual = 0.00917918, Final residual = 4.61391e-06, No Iterations 2
smoothSolver:  Solving for Uy, Initial residual = 0.00977151, Final residual = 5.05913e-06, No Iterations 2
smoothSolver:  Solving for Uz, Initial residual = 0.0116066, Final residual = 5.54088e-06, No Iterations 2
GAMG:  Solving for p, Initial residual = 0.0575479, Final residual = 0.00417472, No Iterations 1
GAMG:  Solving for p, Initial residual = 0.0213683, Final residual = 0.00181113, No Iterations 1
GAMG:  Solving for p, Initial residual = 0.0107077, Final residual = 0.00101141, No Iterations 1
GAMG:  Solving for p, Initial residual = 0.00659673, Final residual = 0.000657544, No Iterations 1
GAMG:  Solving for p, Initial residual = 0.00449907, Final residual = 0.000204285, No Iterations 2
time step continuity errors : sum local = 0.101435, global = 0.0160092, cumulative = -5.82791
ExecutionTime = 2.9 s  ClockTime = 3 s

Time = 48

smoothSolver:  Solving for Ux, Initial residual = 0.00906152, Final residual = 4.57237e-06, No Iterations 2
smoothSolver:  Solving for Uy, Initial residual = 0.00961411, Final residual = 4.95641e-06, No Iterations 2
smoothSolver:  Solving for Uz, Initial residual = 0.0113158, Final residual = 5.42766e-06, No Iterations 2
GAMG:  Solving for p, Initial residual = 0.0574367, Final residual = 0.00413845, No Iterations 1
GAMG:  Solving for p, Initial residual = 0.0215544, Final residual = 0.00184604, No Iterations 1
GAMG:  Solving for p, Initial residual = 0.0112923, Final residual = 0.00107481, No Iterations 1
GAMG:  Solving for p, Initial residual = 0.00732665, Final residual = 0.000339107, No Iterations 2
GAMG:  Solving for p, Initial residual = 0.0066676, Final residual = 0.000446869, No Iterations 1
time step continuity errors : sum local = 0.203775, global = 0.054033, cumulative = -5.77387
ExecutionTime = 2.96 s  ClockTime = 3 s

Time = 49

smoothSolver:  Solving for Ux, Initial residual = 0.00895275, Final residual = 4.53942e-06, No Iterations 2
smoothSolver:  Solving for Uy, Initial residual = 0.00946206, Final residual = 4.87719e-06, No Iterations 2
smoothSolver:  Solving for Uz, Initial residual = 0.0110385, Final residual = 5.30023e-06, No Iterations 2
GAMG:  Solving for p, Initial residual = 0.0578932, Final residual = 0.00420147, No Iterations 1
GAMG:  Solving for p, Initial residual = 0.0218947, Final residual = 0.00190307, No Iterations 1
GAMG:  Solving for p, Initial residual = 0.011639, Final residual = 0.00112467, No Iterations 1
GAMG:  Solving for p, Initial residual = 0.00774418, Final residual = 0.000364714, No Iterations 2
GAMG:  Solving for p, Initial residual = 0.00726941, Final residual = 0.000485124, No Iterations 1
time step continuity errors : sum local = 0.210535, global = 0.0585276, cumulative = -5.71535
ExecutionTime = 3.02 s  ClockTime = 3 s

Time = 50

smoothSolver:  Solving for Ux, Initial residual = 0.00885143, Final residual = 4.48567e-06, No Iterations 2
smoothSolver:  Solving for Uy, Initial residual = 0.00932294, Final residual = 4.80585e-06, No Iterations 2
smoothSolver:  Solving for Uz, Initial residual = 0.0107932, Final residual = 5.18903e-06, No Iterations 2
GAMG:  Solving for p, Initial residual = 0.0586831, Final residual = 0.00426894, No Iterations 1
GAMG:  Solving for p, Initial residual = 0.0221351, Final residual = 0.00192637, No Iterations 1
GAMG:  Solving for p, Initial residual = 0.0115468, Final residual = 0.00111648, No Iterations 1
GAMG:  Solving for p, Initial residual = 0.00762047, Final residual = 0.000352361, No Iterations 2
GAMG:  Solving for p, Initial residual = 0.00707264, Final residual = 0.000472637, No Iterations 1
time step continuity errors : sum local = 0.202698, global = 0.0566475, cumulative = -5.6587
ExecutionTime = 3.07 s  ClockTime = 3 s

Time = 51

smoothSolver:  Solving for Ux, Initial residual = 0.00875727, Final residual = 4.43478e-06, No Iterations 2
smoothSolver:  Solving for Uy, Initial residual = 0.00919274, Final residual = 4.72999e-06, No Iterations 2
smoothSolver:  Solving for Uz, Initial residual = 0.0105985, Final residual = 5.06482e-06, No Iterations 2
GAMG:  Solving for p, Initial residual = 0.0597349, Final residual = 0.00431616, No Iterations 1
GAMG:  Solving for p, Initial residual = 0.0221562, Final residual = 0.00192063, No Iterations 1
GAMG:  Solving for p, Initial residual = 0.0111781, Final residual = 0.00107166, No Iterations 1
GAMG:  Solving for p, Initial residual = 0.00709471, Final residual = 0.000310333, No Iterations 2
GAMG:  Solving for p, Initial residual = 0.00623201, Final residual = 0.000419095, No Iterations 1
time step continuity errors : sum local = 0.182911, global = 0.049462, cumulative = -5.60924
ExecutionTime = 3.14 s  ClockTime = 3 s

Time = 52

smoothSolver:  Solving for Ux, Initial residual = 0.00865872, Final residual = 4.3789e-06, No Iterations 2
smoothSolver:  Solving for Uy, Initial residual = 0.00907293, Final residual = 4.67838e-06, No Iterations 2
smoothSolver:  Solving for Uz, Initial residual = 0.0104313, Final residual = 4.99638e-06, No Iterations 2
GAMG:  Solving for p, Initial residual = 0.0603068, Final residual = 0.00428999, No Iterations 1
GAMG:  Solving for p, Initial residual = 0.021898, Final residual = 0.00186805, No Iterations 1
GAMG:  Solving for p, Initial residual = 0.0107042, Final residual = 0.00101094, No Iterations 1
GAMG:  Solving for p, Initial residual = 0.00642773, Final residual = 0.000247321, No Iterations 2
GAMG:  Solving for p, Initial residual = 0.0050568, Final residual = 0.000348135, No Iterations 1
time step continuity errors : sum local = 0.158421, global = 0.0357952, cumulative = -5.57344
ExecutionTime = 3.2 s  ClockTime = 3 s

Time = 53

smoothSolver:  Solving for Ux, Initial residual = 0.00855989, Final residual = 4.33891e-06, No Iterations 2
smoothSolver:  Solving for Uy, Initial residual = 0.00896625, Final residual = 4.61234e-06, No Iterations 2
smoothSolver:  Solving for Uz, Initial residual = 0.0102888, Final residual = 4.95075e-06, No Iterations 2
GAMG:  Solving for p, Initial residual = 0.0603614, Final residual = 0.00418562, No Iterations 1
GAMG:  Solving for p, Initial residual = 0.0214433, Final residual = 0.00176327, No Iterations 1
GAMG:  Solving for p, Initial residual = 0.010266, Final residual = 0.000931401, No Iterations 1
GAMG:  Solving for p, Initial residual = 0.00594666, Final residual = 0.000582371, No Iterations 1
GAMG:  Solving for p, Initial residual = 0.00381418, Final residual = 0.000137864, No Iterations 2
time step continuity errors : sum local = 0.0655577, global = -4.42425e-05, cumulative = -5.57349
ExecutionTime = 3.25 s  ClockTime = 3 s

Time = 54

smoothSolver:  Solving for Ux, Initial residual = 0.00845676, Final residual = 4.24567e-06, No Iterations 2
smoothSolver:  Solving for Uy, Initial residual = 0.00886771, Final residual = 4.54152e-06, No Iterations 2
smoothSolver:  Solving for Uz, Initial residual = 0.0101355, Final residual = 4.90181e-06, No Iterations 2
GAMG:  Solving for p, Initial residual = 0.0599316, Final residual = 0.00405368, No Iterations 1
GAMG:  Solving for p, Initial residual = 0.0209342, Final residual = 0.00166387, No Iterations 1
GAMG:  Solving for p, Initial residual = 0.00991025, Final residual = 0.000859162, No Iterations 1
GAMG:  Solving for p, Initial residual = 0.00565055, Final residual = 0.000525829, No Iterations 1
GAMG:  Solving for p, Initial residual = 0.00361015, Final residual = 0.000345718, No Iterations 1
time step continuity errors : sum local = 0.169391, global = -0.0343128, cumulative = -5.6078
ExecutionTime = 3.31 s  ClockTime = 3 s

Time = 55

smoothSolver:  Solving for Ux, Initial residual = 0.00835758, Final residual = 4.19427e-06, No Iterations 2
smoothSolver:  Solving for Uy, Initial residual = 0.00876444, Final residual = 4.47516e-06, No Iterations 2
smoothSolver:  Solving for Uz, Initial residual = 0.00999632, Final residual = 4.84248e-06, No Iterations 2
GAMG:  Solving for p, Initial residual = 0.0587858, Final residual = 0.00394164, No Iterations 1
GAMG:  Solving for p, Initial residual = 0.0203591, Final residual = 0.00160208, No Iterations 1
GAMG:  Solving for p, Initial residual = 0.00962613, Final residual = 0.00082484, No Iterations 1
GAMG:  Solving for p, Initial residual = 0.00555193, Final residual = 0.000507298, No Iterations 1
GAMG:  Solving for p, Initial residual = 0.00362626, Final residual = 0.000336713, No Iterations 1
time step continuity errors : sum local = 0.171015, global = -0.0492334, cumulative = -5.65703
ExecutionTime = 3.36 s  ClockTime = 3 s

Time = 56

smoothSolver:  Solving for Ux, Initial residual = 0.00825854, Final residual = 4.133e-06, No Iterations 2
smoothSolver:  Solving for Uy, Initial residual = 0.00865964, Final residual = 4.42816e-06, No Iterations 2
smoothSolver:  Solving for Uz, Initial residual = 0.00985211, Final residual = 4.79483e-06, No Iterations 2
GAMG:  Solving for p, Initial residual = 0.0571623, Final residual = 0.00382938, No Iterations 1
GAMG:  Solving for p, Initial residual = 0.0197549, Final residual = 0.00157622, No Iterations 1
GAMG:  Solving for p, Initial residual = 0.00939828, Final residual = 0.00081908, No Iterations 1
GAMG:  Solving for p, Initial residual = 0.00551299, Final residual = 0.000512127, No Iterations 1
GAMG:  Solving for p, Initial residual = 0.00366055, Final residual = 0.00034285, No Iterations 1
time step continuity errors : sum local = 0.179881, global = -0.0532813, cumulative = -5.71031
ExecutionTime = 3.42 s  ClockTime = 3 s

Time = 57

smoothSolver:  Solving for Ux, Initial residual = 0.00815602, Final residual = 4.03826e-06, No Iterations 2
smoothSolver:  Solving for Uy, Initial residual = 0.00854698, Final residual = 4.37236e-06, No Iterations 2
smoothSolver:  Solving for Uz, Initial residual = 0.00968457, Final residual = 4.67564e-06, No Iterations 2
GAMG:  Solving for p, Initial residual = 0.0554947, Final residual = 0.00372851, No Iterations 1
GAMG:  Solving for p, Initial residual = 0.0191913, Final residual = 0.00155842, No Iterations 1
GAMG:  Solving for p, Initial residual = 0.00920072, Final residual = 0.000820316, No Iterations 1
GAMG:  Solving for p, Initial residual = 0.00543061, Final residual = 0.000519514, No Iterations 1
GAMG:  Solving for p, Initial residual = 0.00363733, Final residual = 0.000347188, No Iterations 1
time step continuity errors : sum local = 0.186669, global = -0.0539204, cumulative = -5.76423
ExecutionTime = 3.48 s  ClockTime = 3 s

Time = 58

smoothSolver:  Solving for Ux, Initial residual = 0.00806429, Final residual = 3.96082e-06, No Iterations 2
smoothSolver:  Solving for Uy, Initial residual = 0.00844075, Final residual = 4.31083e-06, No Iterations 2
smoothSolver:  Solving for Uz, Initial residual = 0.0095282, Final residual = 4.57586e-06, No Iterations 2
GAMG:  Solving for p, Initial residual = 0.053849, Final residual = 0.00363568, No Iterations 1
GAMG:  Solving for p, Initial residual = 0.0186726, Final residual = 0.00154032, No Iterations 1
GAMG:  Solving for p, Initial residual = 0.0090443, Final residual = 0.000821678, No Iterations 1
GAMG:  Solving for p, Initial residual = 0.00531865, Final residual = 0.000520959, No Iterations 1
GAMG:  Solving for p, Initial residual = 0.00356169, Final residual = 0.000349033, No Iterations 1
time step continuity errors : sum local = 0.19059, global = -0.0522433, cumulative = -5.81648
ExecutionTime = 3.53 s  ClockTime = 3 s

Time = 59

smoothSolver:  Solving for Ux, Initial residual = 0.00797597, Final residual = 3.89658e-06, No Iterations 2
smoothSolver:  Solving for Uy, Initial residual = 0.00834603, Final residual = 4.24503e-06, No Iterations 2
smoothSolver:  Solving for Uz, Initial residual = 0.00937242, Final residual = 4.4563e-06, No Iterations 2
GAMG:  Solving for p, Initial residual = 0.0522283, Final residual = 0.00352461, No Iterations 1
GAMG:  Solving for p, Initial residual = 0.0182642, Final residual = 0.00150537, No Iterations 1
GAMG:  Solving for p, Initial residual = 0.0088145, Final residual = 0.000810817, No Iterations 1
GAMG:  Solving for p, Initial residual = 0.00514203, Final residual = 0.000509631, No Iterations 1
GAMG:  Solving for p, Initial residual = 0.00340292, Final residual = 0.00034028, No Iterations 1
time step continuity errors : sum local = 0.187185, global = -0.0460522, cumulative = -5.86253
ExecutionTime = 3.59 s  ClockTime = 3 s

Time = 60

smoothSolver:  Solving for Ux, Initial residual = 0.00790256, Final residual = 3.82446e-06, No Iterations 2
smoothSolver:  Solving for Uy, Initial residual = 0.00825394, Final residual = 4.19598e-06, No Iterations 2
smoothSolver:  Solving for Uz, Initial residual = 0.00923949, Final residual = 4.33631e-06, No Iterations 2
GAMG:  Solving for p, Initial residual = 0.0511067, Final residual = 0.00340881, No Iterations 1
GAMG:  Solving for p, Initial residual = 0.0179166, Final residual = 0.00146576, No Iterations 1
GAMG:  Solving for p, Initial residual = 0.00861285, Final residual = 0.000789858, No Iterations 1
GAMG:  Solving for p, Initial residual = 0.00498506, Final residual = 0.000494567, No Iterations 1
GAMG:  Solving for p, Initial residual = 0.00325827, Final residual = 0.000136152, No Iterations 2
time step continuity errors : sum local = 0.075169, global = -0.01143, cumulative = -5.87396
ExecutionTime = 3.65 s  ClockTime = 3 s

Time = 61

smoothSolver:  Solving for Ux, Initial residual = 0.00782531, Final residual = 3.79934e-06, No Iterations 2
smoothSolver:  Solving for Uy, Initial residual = 0.00815756, Final residual = 4.20805e-06, No Iterations 2
smoothSolver:  Solving for Uz, Initial residual = 0.0091004, Final residual = 4.29547e-06, No Iterations 2
GAMG:  Solving for p, Initial residual = 0.049946, Final residual = 0.00327379, No Iterations 1
GAMG:  Solving for p, Initial residual = 0.0175058, Final residual = 0.00140914, No Iterations 1
GAMG:  Solving for p, Initial residual = 0.00840315, Final residual = 0.00075526, No Iterations 1
GAMG:  Solving for p, Initial residual = 0.00482081, Final residual = 0.000473252, No Iterations 1
GAMG:  Solving for p, Initial residual = 0.00312688, Final residual = 0.000114845, No Iterations 2
time step continuity errors : sum local = 0.0635585, global = -0.00992038, cumulative = -5.88388
ExecutionTime = 3.7 s  ClockTime = 3 s

Time = 62

smoothSolver:  Solving for Ux, Initial residual = 0.00775576, Final residual = 3.80328e-06, No Iterations 2
smoothSolver:  Solving for Uy, Initial residual = 0.00806988, Final residual = 4.18974e-06, No Iterations 2
smoothSolver:  Solving for Uz, Initial residual = 0.00898512, Final residual = 4.30108e-06, No Iterations 2
GAMG:  Solving for p, Initial residual = 0.0490777, Final residual = 0.00321019, No Iterations 1
GAMG:  Solving for p, Initial residual = 0.017231, Final residual = 0.00137907, No Iterations 1
GAMG:  Solving for p, Initial residual = 0.00828706, Final residual = 0.000739979, No Iterations 1
GAMG:  Solving for p, Initial residual = 0.00476981, Final residual = 0.000466368, No Iterations 1
GAMG:  Solving for p, Initial residual = 0.00309648, Final residual = 0.00011603, No Iterations 2
time step continuity errors : sum local = 0.0642853, global = -0.00388408, cumulative = -5.88776
ExecutionTime = 3.76 s  ClockTime = 3 s

Time = 63

smoothSolver:  Solving for Ux, Initial residual = 0.00768285, Final residual = 3.78353e-06, No Iterations 2
smoothSolver:  Solving for Uy, Initial residual = 0.00799965, Final residual = 4.20782e-06, No Iterations 2
smoothSolver:  Solving for Uz, Initial residual = 0.00888761, Final residual = 4.28074e-06, No Iterations 2
GAMG:  Solving for p, Initial residual = 0.0484173, Final residual = 0.00319398, No Iterations 1
GAMG:  Solving for p, Initial residual = 0.017072, Final residual = 0.00137929, No Iterations 1
GAMG:  Solving for p, Initial residual = 0.0082607, Final residual = 0.000746488, No Iterations 1
GAMG:  Solving for p, Initial residual = 0.00479794, Final residual = 0.000475358, No Iterations 1
GAMG:  Solving for p, Initial residual = 0.00313696, Final residual = 0.000124379, No Iterations 2
time step continuity errors : sum local = 0.0690466, global = 0.00255213, cumulative = -5.88521
ExecutionTime = 3.82 s  ClockTime = 4 s

Time = 64

smoothSolver:  Solving for Ux, Initial residual = 0.00761234, Final residual = 3.733e-06, No Iterations 2
smoothSolver:  Solving for Uy, Initial residual = 0.00792001, Final residual = 4.20758e-06, No Iterations 2
smoothSolver:  Solving for Uz, Initial residual = 0.00878759, Final residual = 4.23064e-06, No Iterations 2
GAMG:  Solving for p, Initial residual = 0.0479038, Final residual = 0.00320392, No Iterations 1
GAMG:  Solving for p, Initial residual = 0.0169985, Final residual = 0.00137999, No Iterations 1
GAMG:  Solving for p, Initial residual = 0.0082679, Final residual = 0.000748482, No Iterations 1
GAMG:  Solving for p, Initial residual = 0.00484302, Final residual = 0.000481402, No Iterations 1
GAMG:  Solving for p, Initial residual = 0.00316481, Final residual = 0.000129013, No Iterations 2
time step continuity errors : sum local = 0.0714853, global = 0.00550297, cumulative = -5.87971
ExecutionTime = 3.88 s  ClockTime = 4 s

Time = 65

smoothSolver:  Solving for Ux, Initial residual = 0.0075443, Final residual = 3.69142e-06, No Iterations 2
smoothSolver:  Solving for Uy, Initial residual = 0.00782938, Final residual = 4.16412e-06, No Iterations 2
smoothSolver:  Solving for Uz, Initial residual = 0.00868478, Final residual = 4.16873e-06, No Iterations 2
GAMG:  Solving for p, Initial residual = 0.0473241, Final residual = 0.00318445, No Iterations 1
GAMG:  Solving for p, Initial residual = 0.0168841, Final residual = 0.00136283, No Iterations 1
GAMG:  Solving for p, Initial residual = 0.00823629, Final residual = 0.000739716, No Iterations 1
GAMG:  Solving for p, Initial residual = 0.00483314, Final residual = 0.000474781, No Iterations 1
GAMG:  Solving for p, Initial residual = 0.00315909, Final residual = 0.000127252, No Iterations 2
time step continuity errors : sum local = 0.0709247, global = 0.00563492, cumulative = -5.87407
ExecutionTime = 3.94 s  ClockTime = 4 s

Time = 66

smoothSolver:  Solving for Ux, Initial residual = 0.00748616, Final residual = 3.66536e-06, No Iterations 2
smoothSolver:  Solving for Uy, Initial residual = 0.00774796, Final residual = 4.10649e-06, No Iterations 2
smoothSolver:  Solving for Uz, Initial residual = 0.00856395, Final residual = 4.11055e-06, No Iterations 2
GAMG:  Solving for p, Initial residual = 0.0471189, Final residual = 0.00316891, No Iterations 1
GAMG:  Solving for p, Initial residual = 0.0168868, Final residual = 0.00135242, No Iterations 1
GAMG:  Solving for p, Initial residual = 0.00819374, Final residual = 0.000727052, No Iterations 1
GAMG:  Solving for p, Initial residual = 0.00478187, Final residual = 0.000457973, No Iterations 1
GAMG:  Solving for p, Initial residual = 0.00311619, Final residual = 0.000118704, No Iterations 2
time step continuity errors : sum local = 0.0663118, global = 0.00308354, cumulative = -5.87099
ExecutionTime = 4 s  ClockTime = 4 s

Time = 67

smoothSolver:  Solving for Ux, Initial residual = 0.00742653, Final residual = 3.62451e-06, No Iterations 2
smoothSolver:  Solving for Uy, Initial residual = 0.0076727, Final residual = 4.01261e-06, No Iterations 2
smoothSolver:  Solving for Uz, Initial residual = 0.00843607, Final residual = 4.03966e-06, No Iterations 2
GAMG:  Solving for p, Initial residual = 0.0466389, Final residual = 0.00312809, No Iterations 1
GAMG:  Solving for p, Initial residual = 0.016799, Final residual = 0.00133818, No Iterations 1
GAMG:  Solving for p, Initial residual = 0.00815003, Final residual = 0.000710131, No Iterations 1
GAMG:  Solving for p, Initial residual = 0.0047323, Final residual = 0.000445596, No Iterations 1
GAMG:  Solving for p, Initial residual = 0.00307385, Final residual = 0.000302678, No Iterations 1
time step continuity errors : sum local = 0.170048, global = 0.00551131, cumulative = -5.86548
ExecutionTime = 4.05 s  ClockTime = 4 s

Time = 68

smoothSolver:  Solving for Ux, Initial residual = 0.00736068, Final residual = 3.59462e-06, No Iterations 2
smoothSolver:  Solving for Uy, Initial residual = 0.00759701, Final residual = 3.93908e-06, No Iterations 2
smoothSolver:  Solving for Uz, Initial residual = 0.00830014, Final residual = 3.97607e-06, No Iterations 2
GAMG:  Solving for p, Initial residual = 0.0459849, Final residual = 0.00307438, No Iterations 1
GAMG:  Solving for p, Initial residual = 0.0166485, Final residual = 0.00131033, No Iterations 1
GAMG:  Solving for p, Initial residual = 0.00808461, Final residual = 0.00068825, No Iterations 1
GAMG:  Solving for p, Initial residual = 0.00466651, Final residual = 0.000434205, No Iterations 1
GAMG:  Solving for p, Initial residual = 0.00302412, Final residual = 0.000292594, No Iterations 1
time step continuity errors : sum local = 0.166657, global = -0.00461299, cumulative = -5.87009
ExecutionTime = 4.12 s  ClockTime = 4 s

Time = 69

smoothSolver:  Solving for Ux, Initial residual = 0.00728578, Final residual = 3.54159e-06, No Iterations 2
smoothSolver:  Solving for Uy, Initial residual = 0.0075062, Final residual = 3.86521e-06, No Iterations 2
smoothSolver:  Solving for Uz, Initial residual = 0.008169, Final residual = 3.89543e-06, No Iterations 2
GAMG:  Solving for p, Initial residual = 0.0452308, Final residual = 0.003022, No Iterations 1
GAMG:  Solving for p, Initial residual = 0.0163406, Final residual = 0.0012782, No Iterations 1
GAMG:  Solving for p, Initial residual = 0.00787495, Final residual = 0.000671086, No Iterations 1
GAMG:  Solving for p, Initial residual = 0.00452612, Final residual = 0.000421472, No Iterations 1
GAMG:  Solving for p, Initial residual = 0.00291785, Final residual = 0.00028334, No Iterations 1
time step continuity errors : sum local = 0.163443, global = -0.0143018, cumulative = -5.88439
ExecutionTime = 4.17 s  ClockTime = 4 s

Time = 70

smoothSolver:  Solving for Ux, Initial residual = 0.00722426, Final residual = 3.50074e-06, No Iterations 2
smoothSolver:  Solving for Uy, Initial residual = 0.00743261, Final residual = 3.80361e-06, No Iterations 2
smoothSolver:  Solving for Uz, Initial residual = 0.00804943, Final residual = 3.83036e-06, No Iterations 2
GAMG:  Solving for p, Initial residual = 0.0443844, Final residual = 0.00297342, No Iterations 1
GAMG:  Solving for p, Initial residual = 0.0160991, Final residual = 0.00125045, No Iterations 1
GAMG:  Solving for p, Initial residual = 0.00768206, Final residual = 0.000655505, No Iterations 1
GAMG:  Solving for p, Initial residual = 0.00439796, Final residual = 0.000408193, No Iterations 1
GAMG:  Solving for p, Initial residual = 0.002816, Final residual = 0.000273988, No Iterations 1
time step continuity errors : sum local = 0.160332, global = -0.0217829, cumulative = -5.90618
ExecutionTime = 4.22 s  ClockTime = 4 s

Time = 71

smoothSolver:  Solving for Ux, Initial residual = 0.00715905, Final residual = 3.44489e-06, No Iterations 2
smoothSolver:  Solving for Uy, Initial residual = 0.00735449, Final residual = 3.73416e-06, No Iterations 2
smoothSolver:  Solving for Uz, Initial residual = 0.00791751, Final residual = 3.75837e-06, No Iterations 2
GAMG:  Solving for p, Initial residual = 0.0437859, Final residual = 0.00293321, No Iterations 1
GAMG:  Solving for p, Initial residual = 0.0159222, Final residual = 0.00124387, No Iterations 1
GAMG:  Solving for p, Initial residual = 0.00755326, Final residual = 0.000653167, No Iterations 1
GAMG:  Solving for p, Initial residual = 0.00433522, Final residual = 0.000402586, No Iterations 1
GAMG:  Solving for p, Initial residual = 0.00277426, Final residual = 0.000270551, No Iterations 1
time step continuity errors : sum local = 0.160292, global = -0.0264712, cumulative = -5.93265
ExecutionTime = 4.29 s  ClockTime = 4 s

Time = 72

smoothSolver:  Solving for Ux, Initial residual = 0.00709357, Final residual = 3.43286e-06, No Iterations 2
smoothSolver:  Solving for Uy, Initial residual = 0.00727014, Final residual = 3.7095e-06, No Iterations 2
smoothSolver:  Solving for Uz, Initial residual = 0.00777743, Final residual = 3.70775e-06, No Iterations 2
GAMG:  Solving for p, Initial residual = 0.0432036, Final residual = 0.00288605, No Iterations 1
GAMG:  Solving for p, Initial residual = 0.0157663, Final residual = 0.00123439, No Iterations 1
GAMG:  Solving for p, Initial residual = 0.00746798, Final residual = 0.000649506, No Iterations 1
GAMG:  Solving for p, Initial residual = 0.00431193, Final residual = 0.000400365, No Iterations 1
GAMG:  Solving for p, Initial residual = 0.00276482, Final residual = 0.000269599, No Iterations 1
time step continuity errors : sum local = 0.160967, global = -0.0285657, cumulative = -5.96121
ExecutionTime = 4.34 s  ClockTime = 4 s

Time = 73

smoothSolver:  Solving for Ux, Initial residual = 0.00702592, Final residual = 3.41592e-06, No Iterations 2
smoothSolver:  Solving for Uy, Initial residual = 0.00717105, Final residual = 3.67211e-06, No Iterations 2
smoothSolver:  Solving for Uz, Initial residual = 0.0076277, Final residual = 3.65094e-06, No Iterations 2
GAMG:  Solving for p, Initial residual = 0.0422412, Final residual = 0.00282338, No Iterations 1
GAMG:  Solving for p, Initial residual = 0.0154115, Final residual = 0.00120881, No Iterations 1
GAMG:  Solving for p, Initial residual = 0.00732485, Final residual = 0.00064172, No Iterations 1
GAMG:  Solving for p, Initial residual = 0.00426908, Final residual = 0.000396535, No Iterations 1
GAMG:  Solving for p, Initial residual = 0.00274728, Final residual = 0.000267573, No Iterations 1
time step continuity errors : sum local = 0.161644, global = -0.0276552, cumulative = -5.98887
ExecutionTime = 4.39 s  ClockTime = 4 s

Time = 74

smoothSolver:  Solving for Ux, Initial residual = 0.00696092, Final residual = 3.38904e-06, No Iterations 2
smoothSolver:  Solving for Uy, Initial residual = 0.00707535, Final residual = 3.60824e-06, No Iterations 2
smoothSolver:  Solving for Uz, Initial residual = 0.00748426, Final residual = 3.59794e-06, No Iterations 2
GAMG:  Solving for p, Initial residual = 0.0413065, Final residual = 0.00277458, No Iterations 1
GAMG:  Solving for p, Initial residual = 0.015053, Final residual = 0.00118071, No Iterations 1
GAMG:  Solving for p, Initial residual = 0.00720395, Final residual = 0.000631242, No Iterations 1
GAMG:  Solving for p, Initial residual = 0.00422589, Final residual = 0.000393252, No Iterations 1
GAMG:  Solving for p, Initial residual = 0.00273455, Final residual = 0.000266636, No Iterations 1
time step continuity errors : sum local = 0.162984, global = -0.0254788, cumulative = -6.01435
ExecutionTime = 4.45 s  ClockTime = 4 s

Time = 75

smoothSolver:  Solving for Ux, Initial residual = 0.00690537, Final residual = 3.35115e-06, No Iterations 2
smoothSolver:  Solving for Uy, Initial residual = 0.00698896, Final residual = 3.53092e-06, No Iterations 2
smoothSolver:  Solving for Uz, Initial residual = 0.00736124, Final residual = 3.52653e-06, No Iterations 2
GAMG:  Solving for p, Initial residual = 0.0406973, Final residual = 0.00275385, No Iterations 1
GAMG:  Solving for p, Initial residual = 0.0148337, Final residual = 0.00116629, No Iterations 1
GAMG:  Solving for p, Initial residual = 0.00718943, Final residual = 0.000629376, No Iterations 1
GAMG:  Solving for p, Initial residual = 0.00425389, Final residual = 0.000398235, No Iterations 1
GAMG:  Solving for p, Initial residual = 0.00276693, Final residual = 0.000272165, No Iterations 1
time step continuity errors : sum local = 0.167601, global = -0.0224557, cumulative = -6.0368
ExecutionTime = 4.51 s  ClockTime = 4 s

Time = 76

smoothSolver:  Solving for Ux, Initial residual = 0.00685289, Final residual = 3.32255e-06, No Iterations 2
smoothSolver:  Solving for Uy, Initial residual = 0.00690746, Final residual = 3.48166e-06, No Iterations 2
smoothSolver:  Solving for Uz, Initial residual = 0.00724084, Final residual = 3.46468e-06, No Iterations 2
GAMG:  Solving for p, Initial residual = 0.0401288, Final residual = 0.00274462, No Iterations 1
GAMG:  Solving for p, Initial residual = 0.0148235, Final residual = 0.00116473, No Iterations 1
GAMG:  Solving for p, Initial residual = 0.00726427, Final residual = 0.000643098, No Iterations 1
GAMG:  Solving for p, Initial residual = 0.00433729, Final residual = 0.000410833, No Iterations 1
GAMG:  Solving for p, Initial residual = 0.00282079, Final residual = 0.000107307, No Iterations 2
time step continuity errors : sum local = 0.0668473, global = -0.0122493, cumulative = -6.04905
ExecutionTime = 4.57 s  ClockTime = 4 s

Time = 77

smoothSolver:  Solving for Ux, Initial residual = 0.00680832, Final residual = 3.33452e-06, No Iterations 2
smoothSolver:  Solving for Uy, Initial residual = 0.00683941, Final residual = 3.44454e-06, No Iterations 2
smoothSolver:  Solving for Uz, Initial residual = 0.00714455, Final residual = 3.39277e-06, No Iterations 2
GAMG:  Solving for p, Initial residual = 0.040095, Final residual = 0.00274663, No Iterations 1
GAMG:  Solving for p, Initial residual = 0.0154927, Final residual = 0.00119277, No Iterations 1
GAMG:  Solving for p, Initial residual = 0.00768894, Final residual = 0.000657206, No Iterations 1
GAMG:  Solving for p, Initial residual = 0.00453271, Final residual = 0.000422786, No Iterations 1
GAMG:  Solving for p, Initial residual = 0.00295176, Final residual = 0.000112959, No Iterations 2
time step continuity errors : sum local = 0.0712932, global = -0.0120642, cumulative = -6.06112
ExecutionTime = 4.63 s  ClockTime = 4 s

Time = 78

smoothSolver:  Solving for Ux, Initial residual = 0.00676337, Final residual = 3.32369e-06, No Iterations 2
smoothSolver:  Solving for Uy, Initial residual = 0.006782, Final residual = 3.42621e-06, No Iterations 2
smoothSolver:  Solving for Uz, Initial residual = 0.00706141, Final residual = 3.3507e-06, No Iterations 2
GAMG:  Solving for p, Initial residual = 0.0392227, Final residual = 0.00279551, No Iterations 1
GAMG:  Solving for p, Initial residual = 0.0150597, Final residual = 0.00123071, No Iterations 1
GAMG:  Solving for p, Initial residual = 0.00753947, Final residual = 0.000690826, No Iterations 1
GAMG:  Solving for p, Initial residual = 0.0044717, Final residual = 0.000174291, No Iterations 2
GAMG:  Solving for p, Initial residual = 0.00316529, Final residual = 0.000232786, No Iterations 1
time step continuity errors : sum local = 0.148802, global = -0.00895715, cumulative = -6.07008
ExecutionTime = 4.68 s  ClockTime = 4 s

Time = 79

smoothSolver:  Solving for Ux, Initial residual = 0.00674077, Final residual = 3.33098e-06, No Iterations 2
smoothSolver:  Solving for Uy, Initial residual = 0.0067479, Final residual = 3.38624e-06, No Iterations 2
smoothSolver:  Solving for Uz, Initial residual = 0.00700179, Final residual = 3.33991e-06, No Iterations 2
GAMG:  Solving for p, Initial residual = 0.0382448, Final residual = 0.00273109, No Iterations 1
GAMG:  Solving for p, Initial residual = 0.0144701, Final residual = 0.0012183, No Iterations 1
GAMG:  Solving for p, Initial residual = 0.00722325, Final residual = 0.000656356, No Iterations 1
GAMG:  Solving for p, Initial residual = 0.00427631, Final residual = 0.000424897, No Iterations 1
GAMG:  Solving for p, Initial residual = 0.0028198, Final residual = 0.000113173, No Iterations 2
time step continuity errors : sum local = 0.0727651, global = -0.00685365, cumulative = -6.07693
ExecutionTime = 4.74 s  ClockTime = 4 s

Time = 80

smoothSolver:  Solving for Ux, Initial residual = 0.0067137, Final residual = 3.31402e-06, No Iterations 2
smoothSolver:  Solving for Uy, Initial residual = 0.00668429, Final residual = 3.32818e-06, No Iterations 2
smoothSolver:  Solving for Uz, Initial residual = 0.00693444, Final residual = 3.3134e-06, No Iterations 2
GAMG:  Solving for p, Initial residual = 0.0380092, Final residual = 0.00260146, No Iterations 1
GAMG:  Solving for p, Initial residual = 0.0142214, Final residual = 0.00111813, No Iterations 1
GAMG:  Solving for p, Initial residual = 0.00692201, Final residual = 0.000594237, No Iterations 1
GAMG:  Solving for p, Initial residual = 0.00408183, Final residual = 0.000382255, No Iterations 1
GAMG:  Solving for p, Initial residual = 0.00265322, Final residual = 0.000262489, No Iterations 1
time step continuity errors : sum local = 0.168192, global = 0.000940582, cumulative = -6.07599
ExecutionTime = 4.8 s  ClockTime = 4 s

Time = 81

smoothSolver:  Solving for Ux, Initial residual = 0.00666686, Final residual = 3.3083e-06, No Iterations 2
smoothSolver:  Solving for Uy, Initial residual = 0.00658854, Final residual = 3.29781e-06, No Iterations 2
smoothSolver:  Solving for Uz, Initial residual = 0.00685117, Final residual = 3.30068e-06, No Iterations 2
GAMG:  Solving for p, Initial residual = 0.0372439, Final residual = 0.0025469, No Iterations 1
GAMG:  Solving for p, Initial residual = 0.013826, Final residual = 0.00103788, No Iterations 1
GAMG:  Solving for p, Initial residual = 0.00660545, Final residual = 0.000543915, No Iterations 1
GAMG:  Solving for p, Initial residual = 0.00389598, Final residual = 0.000347989, No Iterations 1
GAMG:  Solving for p, Initial residual = 0.00251083, Final residual = 0.000238228, No Iterations 1
time step continuity errors : sum local = 0.153943, global = 0.00374099, cumulative = -6.07225
ExecutionTime = 4.86 s  ClockTime = 5 s

Time = 82

smoothSolver:  Solving for Ux, Initial residual = 0.00659811, Final residual = 3.2657e-06, No Iterations 2
smoothSolver:  Solving for Uy, Initial residual = 0.00649532, Final residual = 3.22813e-06, No Iterations 2
smoothSolver:  Solving for Uz, Initial residual = 0.00674724, Final residual = 3.23305e-06, No Iterations 2
GAMG:  Solving for p, Initial residual = 0.0370843, Final residual = 0.00255781, No Iterations 1
GAMG:  Solving for p, Initial residual = 0.0136518, Final residual = 0.00105437, No Iterations 1
GAMG:  Solving for p, Initial residual = 0.00657204, Final residual = 0.000554, No Iterations 1
GAMG:  Solving for p, Initial residual = 0.00387591, Final residual = 0.000347498, No Iterations 1
GAMG:  Solving for p, Initial residual = 0.00251119, Final residual = 0.000237412, No Iterations 1
time step continuity errors : sum local = 0.153162, global = 0.00588382, cumulative = -6.06636
ExecutionTime = 4.91 s  ClockTime = 5 s

Time = 83

[...]
GAMG:  Solving for p, Initial residual = 2.57135e-05, Final residual = 2.28766e-06, No Iterations 1
GAMG:  Solving for p, Initial residual = 1.70463e-05, Final residual = 1.62561e-06, No Iterations 1
time step continuity errors : sum local = 4.36977e+09, global = 5.9553e+08, cumulative = 9.07158e+09
ExecutionTime = 116.24 s  ClockTime = 116 s

Time = 1981

smoothSolver:  Solving for Ux, Initial residual = 0.0169489, Final residual = 7.4949e-06, No Iterations 2
smoothSolver:  Solving for Uy, Initial residual = 0.0175796, Final residual = 1.05553e-05, No Iterations 2
smoothSolver:  Solving for Uz, Initial residual = 0.0175217, Final residual = 1.27821e-05, No Iterations 2
GAMG:  Solving for p, Initial residual = 0.000184528, Final residual = 1.56303e-05, No Iterations 1
GAMG:  Solving for p, Initial residual = 8.12698e-05, Final residual = 6.3155e-06, No Iterations 1
GAMG:  Solving for p, Initial residual = 4.61664e-05, Final residual = 3.82263e-06, No Iterations 1
GAMG:  Solving for p, Initial residual = 2.94671e-05, Final residual = 2.62821e-06, No Iterations 1
GAMG:  Solving for p, Initial residual = 1.94812e-05, Final residual = 1.85404e-06, No Iterations 1
time step continuity errors : sum local = 4.50169e+09, global = 6.08296e+08, cumulative = 9.67988e+09
ExecutionTime = 116.29 s  ClockTime = 116 s

Time = 1982

smoothSolver:  Solving for Ux, Initial residual = 0.0169304, Final residual = 7.49988e-06, No Iterations 2
smoothSolver:  Solving for Uy, Initial residual = 0.0175344, Final residual = 1.06159e-05, No Iterations 2
smoothSolver:  Solving for Uz, Initial residual = 0.0174242, Final residual = 1.27323e-05, No Iterations 2
GAMG:  Solving for p, Initial residual = 0.000173012, Final residual = 1.43906e-05, No Iterations 1
GAMG:  Solving for p, Initial residual = 7.55344e-05, Final residual = 5.9379e-06, No Iterations 1
GAMG:  Solving for p, Initial residual = 4.29011e-05, Final residual = 3.58472e-06, No Iterations 1
GAMG:  Solving for p, Initial residual = 2.7473e-05, Final residual = 2.45819e-06, No Iterations 1
GAMG:  Solving for p, Initial residual = 1.80185e-05, Final residual = 1.7204e-06, No Iterations 1
time step continuity errors : sum local = 4.59414e+09, global = 5.88848e+08, cumulative = 1.02687e+10
ExecutionTime = 116.35 s  ClockTime = 116 s

Time = 1983

smoothSolver:  Solving for Ux, Initial residual = 0.0169865, Final residual = 7.5427e-06, No Iterations 2
smoothSolver:  Solving for Uy, Initial residual = 0.0175092, Final residual = 1.05899e-05, No Iterations 2
smoothSolver:  Solving for Uz, Initial residual = 0.0173712, Final residual = 1.26246e-05, No Iterations 2
GAMG:  Solving for p, Initial residual = 0.000162045, Final residual = 1.33477e-05, No Iterations 1
GAMG:  Solving for p, Initial residual = 7.12587e-05, Final residual = 5.63455e-06, No Iterations 1
GAMG:  Solving for p, Initial residual = 4.07072e-05, Final residual = 3.43497e-06, No Iterations 1
GAMG:  Solving for p, Initial residual = 2.58614e-05, Final residual = 2.30475e-06, No Iterations 1
GAMG:  Solving for p, Initial residual = 1.68164e-05, Final residual = 1.59946e-06, No Iterations 1
time step continuity errors : sum local = 4.63715e+09, global = 5.13449e+08, cumulative = 1.07822e+10
ExecutionTime = 116.41 s  ClockTime = 116 s

Time = 1984

smoothSolver:  Solving for Ux, Initial residual = 0.0170063, Final residual = 7.56672e-06, No Iterations 2
smoothSolver:  Solving for Uy, Initial residual = 0.0174406, Final residual = 1.05203e-05, No Iterations 2
smoothSolver:  Solving for Uz, Initial residual = 0.0173148, Final residual = 1.24793e-05, No Iterations 2
GAMG:  Solving for p, Initial residual = 0.000160583, Final residual = 1.31607e-05, No Iterations 1
GAMG:  Solving for p, Initial residual = 7.0441e-05, Final residual = 5.53828e-06, No Iterations 1
GAMG:  Solving for p, Initial residual = 4.02902e-05, Final residual = 3.39123e-06, No Iterations 1
GAMG:  Solving for p, Initial residual = 2.5575e-05, Final residual = 2.25895e-06, No Iterations 1
GAMG:  Solving for p, Initial residual = 1.64677e-05, Final residual = 1.55825e-06, No Iterations 1
time step continuity errors : sum local = 4.70655e+09, global = 4.84979e+08, cumulative = 1.12672e+10
ExecutionTime = 116.46 s  ClockTime = 116 s

Time = 1985

smoothSolver:  Solving for Ux, Initial residual = 0.017048, Final residual = 7.55139e-06, No Iterations 2
smoothSolver:  Solving for Uy, Initial residual = 0.0173605, Final residual = 1.0487e-05, No Iterations 2
smoothSolver:  Solving for Uz, Initial residual = 0.0173165, Final residual = 1.23897e-05, No Iterations 2
GAMG:  Solving for p, Initial residual = 0.000151605, Final residual = 1.25747e-05, No Iterations 1
GAMG:  Solving for p, Initial residual = 6.72771e-05, Final residual = 5.28859e-06, No Iterations 1
GAMG:  Solving for p, Initial residual = 3.87924e-05, Final residual = 3.28799e-06, No Iterations 1
GAMG:  Solving for p, Initial residual = 2.45079e-05, Final residual = 2.13677e-06, No Iterations 1
GAMG:  Solving for p, Initial residual = 1.5786e-05, Final residual = 1.49564e-06, No Iterations 1
time step continuity errors : sum local = 4.87049e+09, global = 3.55514e+08, cumulative = 1.16227e+10
ExecutionTime = 116.52 s  ClockTime = 116 s

Time = 1986

smoothSolver:  Solving for Ux, Initial residual = 0.0170604, Final residual = 7.56594e-06, No Iterations 2
smoothSolver:  Solving for Uy, Initial residual = 0.0172852, Final residual = 1.05058e-05, No Iterations 2
smoothSolver:  Solving for Uz, Initial residual = 0.0173133, Final residual = 1.24184e-05, No Iterations 2
GAMG:  Solving for p, Initial residual = 0.000158595, Final residual = 1.32171e-05, No Iterations 1
GAMG:  Solving for p, Initial residual = 7.08543e-05, Final residual = 5.57657e-06, No Iterations 1
GAMG:  Solving for p, Initial residual = 4.09299e-05, Final residual = 3.4971e-06, No Iterations 1
GAMG:  Solving for p, Initial residual = 2.58953e-05, Final residual = 2.2529e-06, No Iterations 1
GAMG:  Solving for p, Initial residual = 1.67919e-05, Final residual = 1.58497e-06, No Iterations 1
time step continuity errors : sum local = 5.1197e+09, global = 3.31684e+08, cumulative = 1.19544e+10
ExecutionTime = 116.58 s  ClockTime = 116 s

Time = 1987

smoothSolver:  Solving for Ux, Initial residual = 0.0171434, Final residual = 7.63171e-06, No Iterations 2
smoothSolver:  Solving for Uy, Initial residual = 0.0172567, Final residual = 1.05151e-05, No Iterations 2
smoothSolver:  Solving for Uz, Initial residual = 0.0172293, Final residual = 1.24676e-05, No Iterations 2
GAMG:  Solving for p, Initial residual = 0.000148798, Final residual = 1.24961e-05, No Iterations 1
GAMG:  Solving for p, Initial residual = 6.68049e-05, Final residual = 5.29724e-06, No Iterations 1
GAMG:  Solving for p, Initial residual = 3.87865e-05, Final residual = 3.35646e-06, No Iterations 1
GAMG:  Solving for p, Initial residual = 2.46701e-05, Final residual = 2.16339e-06, No Iterations 1
GAMG:  Solving for p, Initial residual = 1.6114e-05, Final residual = 1.51874e-06, No Iterations 1
time step continuity errors : sum local = 5.42936e+09, global = 2.49906e+08, cumulative = 1.22043e+10
ExecutionTime = 116.64 s  ClockTime = 116 s

Time = 1988

smoothSolver:  Solving for Ux, Initial residual = 0.0172104, Final residual = 7.71372e-06, No Iterations 2
smoothSolver:  Solving for Uy, Initial residual = 0.0172512, Final residual = 1.05633e-05, No Iterations 2
smoothSolver:  Solving for Uz, Initial residual = 0.0172059, Final residual = 1.25037e-05, No Iterations 2
GAMG:  Solving for p, Initial residual = 0.000141207, Final residual = 1.18149e-05, No Iterations 1
GAMG:  Solving for p, Initial residual = 6.26796e-05, Final residual = 5.01515e-06, No Iterations 1
GAMG:  Solving for p, Initial residual = 3.66303e-05, Final residual = 3.18611e-06, No Iterations 1
GAMG:  Solving for p, Initial residual = 2.36338e-05, Final residual = 2.06273e-06, No Iterations 1
GAMG:  Solving for p, Initial residual = 1.52908e-05, Final residual = 1.43973e-06, No Iterations 1
time step continuity errors : sum local = 5.65105e+09, global = 2.34624e+08, cumulative = 1.24389e+10
ExecutionTime = 116.69 s  ClockTime = 116 s

Time = 1989

smoothSolver:  Solving for Ux, Initial residual = 0.0173006, Final residual = 7.71359e-06, No Iterations 2
smoothSolver:  Solving for Uy, Initial residual = 0.017266, Final residual = 1.05009e-05, No Iterations 2
smoothSolver:  Solving for Uz, Initial residual = 0.0172079, Final residual = 1.24496e-05, No Iterations 2
GAMG:  Solving for p, Initial residual = 0.000152811, Final residual = 1.27759e-05, No Iterations 1
GAMG:  Solving for p, Initial residual = 6.75513e-05, Final residual = 5.4598e-06, No Iterations 1
GAMG:  Solving for p, Initial residual = 3.99334e-05, Final residual = 3.49636e-06, No Iterations 1
GAMG:  Solving for p, Initial residual = 2.56829e-05, Final residual = 2.25349e-06, No Iterations 1
GAMG:  Solving for p, Initial residual = 1.67476e-05, Final residual = 1.58033e-06, No Iterations 1
time step continuity errors : sum local = 5.92277e+09, global = 1.39836e+08, cumulative = 1.25787e+10
ExecutionTime = 116.75 s  ClockTime = 116 s

Time = 1990

smoothSolver:  Solving for Ux, Initial residual = 0.017272, Final residual = 7.68812e-06, No Iterations 2
smoothSolver:  Solving for Uy, Initial residual = 0.0172128, Final residual = 1.04713e-05, No Iterations 2
smoothSolver:  Solving for Uz, Initial residual = 0.0172724, Final residual = 1.24889e-05, No Iterations 2
GAMG:  Solving for p, Initial residual = 0.000159432, Final residual = 1.31761e-05, No Iterations 1
GAMG:  Solving for p, Initial residual = 6.98675e-05, Final residual = 5.48684e-06, No Iterations 1
GAMG:  Solving for p, Initial residual = 4.10159e-05, Final residual = 3.54606e-06, No Iterations 1
GAMG:  Solving for p, Initial residual = 2.65043e-05, Final residual = 2.31871e-06, No Iterations 1
GAMG:  Solving for p, Initial residual = 1.70147e-05, Final residual = 1.60904e-06, No Iterations 1
time step continuity errors : sum local = 6.02186e+09, global = 2.50026e+08, cumulative = 1.28287e+10
ExecutionTime = 116.81 s  ClockTime = 117 s

Time = 1991

smoothSolver:  Solving for Ux, Initial residual = 0.0172209, Final residual = 7.66236e-06, No Iterations 2
smoothSolver:  Solving for Uy, Initial residual = 0.0171274, Final residual = 1.03667e-05, No Iterations 2
smoothSolver:  Solving for Uz, Initial residual = 0.0172915, Final residual = 1.26737e-05, No Iterations 2
GAMG:  Solving for p, Initial residual = 0.000169462, Final residual = 1.3997e-05, No Iterations 1
GAMG:  Solving for p, Initial residual = 7.37797e-05, Final residual = 5.76439e-06, No Iterations 1
GAMG:  Solving for p, Initial residual = 4.35505e-05, Final residual = 3.72634e-06, No Iterations 1
GAMG:  Solving for p, Initial residual = 2.77309e-05, Final residual = 2.49142e-06, No Iterations 1
GAMG:  Solving for p, Initial residual = 1.80003e-05, Final residual = 1.72387e-06, No Iterations 1
time step continuity errors : sum local = 6.28581e+09, global = 2.6683e+08, cumulative = 1.30956e+10
ExecutionTime = 116.86 s  ClockTime = 117 s

Time = 1992

smoothSolver:  Solving for Ux, Initial residual = 0.017121, Final residual = 7.59254e-06, No Iterations 2
smoothSolver:  Solving for Uy, Initial residual = 0.0170456, Final residual = 1.03467e-05, No Iterations 2
smoothSolver:  Solving for Uz, Initial residual = 0.0173396, Final residual = 1.26932e-05, No Iterations 2
GAMG:  Solving for p, Initial residual = 0.000176705, Final residual = 1.42642e-05, No Iterations 1
GAMG:  Solving for p, Initial residual = 7.64765e-05, Final residual = 5.81835e-06, No Iterations 1
GAMG:  Solving for p, Initial residual = 4.44898e-05, Final residual = 3.81177e-06, No Iterations 1
GAMG:  Solving for p, Initial residual = 2.86555e-05, Final residual = 2.58707e-06, No Iterations 1
GAMG:  Solving for p, Initial residual = 1.84857e-05, Final residual = 1.78549e-06, No Iterations 1
time step continuity errors : sum local = 6.52471e+09, global = 4.37389e+08, cumulative = 1.3533e+10
ExecutionTime = 116.92 s  ClockTime = 117 s

Time = 1993

smoothSolver:  Solving for Ux, Initial residual = 0.0170967, Final residual = 7.6207e-06, No Iterations 2
smoothSolver:  Solving for Uy, Initial residual = 0.0170066, Final residual = 1.03553e-05, No Iterations 2
smoothSolver:  Solving for Uz, Initial residual = 0.0173473, Final residual = 1.27601e-05, No Iterations 2
GAMG:  Solving for p, Initial residual = 0.000182109, Final residual = 1.44477e-05, No Iterations 1
GAMG:  Solving for p, Initial residual = 7.82849e-05, Final residual = 6.0181e-06, No Iterations 1
GAMG:  Solving for p, Initial residual = 4.56875e-05, Final residual = 3.87275e-06, No Iterations 1
GAMG:  Solving for p, Initial residual = 2.91729e-05, Final residual = 2.61741e-06, No Iterations 1
GAMG:  Solving for p, Initial residual = 1.90114e-05, Final residual = 1.83544e-06, No Iterations 1
time step continuity errors : sum local = 6.83169e+09, global = 3.60758e+08, cumulative = 1.38937e+10
ExecutionTime = 116.97 s  ClockTime = 117 s

Time = 1994

smoothSolver:  Solving for Ux, Initial residual = 0.0170736, Final residual = 7.64478e-06, No Iterations 2
smoothSolver:  Solving for Uy, Initial residual = 0.0169895, Final residual = 1.03604e-05, No Iterations 2
smoothSolver:  Solving for Uz, Initial residual = 0.0174213, Final residual = 1.27059e-05, No Iterations 2
GAMG:  Solving for p, Initial residual = 0.000198521, Final residual = 1.57892e-05, No Iterations 1
GAMG:  Solving for p, Initial residual = 8.65127e-05, Final residual = 6.71186e-06, No Iterations 1
GAMG:  Solving for p, Initial residual = 5.03475e-05, Final residual = 4.37999e-06, No Iterations 1
GAMG:  Solving for p, Initial residual = 3.27989e-05, Final residual = 2.98035e-06, No Iterations 1
GAMG:  Solving for p, Initial residual = 2.1554e-05, Final residual = 2.09945e-06, No Iterations 1
time step continuity errors : sum local = 7.31342e+09, global = 5.92456e+08, cumulative = 1.44862e+10
ExecutionTime = 117.03 s  ClockTime = 117 s

Time = 1995

smoothSolver:  Solving for Ux, Initial residual = 0.0171336, Final residual = 7.652e-06, No Iterations 2
smoothSolver:  Solving for Uy, Initial residual = 0.0169817, Final residual = 1.03299e-05, No Iterations 2
smoothSolver:  Solving for Uz, Initial residual = 0.0174314, Final residual = 1.2835e-05, No Iterations 2
GAMG:  Solving for p, Initial residual = 0.00020103, Final residual = 1.63168e-05, No Iterations 1
GAMG:  Solving for p, Initial residual = 8.83761e-05, Final residual = 6.95098e-06, No Iterations 1
GAMG:  Solving for p, Initial residual = 5.14583e-05, Final residual = 4.42799e-06, No Iterations 1
GAMG:  Solving for p, Initial residual = 3.31191e-05, Final residual = 3.00785e-06, No Iterations 1
GAMG:  Solving for p, Initial residual = 2.18678e-05, Final residual = 2.11578e-06, No Iterations 1
time step continuity errors : sum local = 7.49566e+09, global = 5.70454e+08, cumulative = 1.50566e+10
ExecutionTime = 117.09 s  ClockTime = 117 s

Time = 1996

smoothSolver:  Solving for Ux, Initial residual = 0.0171606, Final residual = 7.69651e-06, No Iterations 2
smoothSolver:  Solving for Uy, Initial residual = 0.0169291, Final residual = 1.03971e-05, No Iterations 2
smoothSolver:  Solving for Uz, Initial residual = 0.0174413, Final residual = 1.28274e-05, No Iterations 2
GAMG:  Solving for p, Initial residual = 0.000217926, Final residual = 1.76781e-05, No Iterations 1
GAMG:  Solving for p, Initial residual = 9.52572e-05, Final residual = 7.55368e-06, No Iterations 1
GAMG:  Solving for p, Initial residual = 5.51974e-05, Final residual = 4.78747e-06, No Iterations 1
GAMG:  Solving for p, Initial residual = 3.55045e-05, Final residual = 3.29936e-06, No Iterations 1
GAMG:  Solving for p, Initial residual = 2.37355e-05, Final residual = 2.33206e-06, No Iterations 1
time step continuity errors : sum local = 8.00199e+09, global = 7.70454e+08, cumulative = 1.58271e+10
ExecutionTime = 117.14 s  ClockTime = 117 s

Time = 1997

smoothSolver:  Solving for Ux, Initial residual = 0.0172057, Final residual = 7.74116e-06, No Iterations 2
smoothSolver:  Solving for Uy, Initial residual = 0.0169089, Final residual = 1.02806e-05, No Iterations 2
smoothSolver:  Solving for Uz, Initial residual = 0.0174399, Final residual = 1.28313e-05, No Iterations 2
GAMG:  Solving for p, Initial residual = 0.000221525, Final residual = 1.83005e-05, No Iterations 1
GAMG:  Solving for p, Initial residual = 9.9812e-05, Final residual = 7.81291e-06, No Iterations 1
GAMG:  Solving for p, Initial residual = 5.73783e-05, Final residual = 4.89975e-06, No Iterations 1
GAMG:  Solving for p, Initial residual = 3.67641e-05, Final residual = 3.35687e-06, No Iterations 1
GAMG:  Solving for p, Initial residual = 2.43794e-05, Final residual = 2.39477e-06, No Iterations 1
time step continuity errors : sum local = 8.23774e+09, global = 7.50788e+08, cumulative = 1.65779e+10
ExecutionTime = 117.2 s  ClockTime = 117 s

Time = 1998

smoothSolver:  Solving for Ux, Initial residual = 0.0172414, Final residual = 7.75258e-06, No Iterations 2
smoothSolver:  Solving for Uy, Initial residual = 0.0169134, Final residual = 1.02613e-05, No Iterations 2
smoothSolver:  Solving for Uz, Initial residual = 0.017395, Final residual = 1.27658e-05, No Iterations 2
GAMG:  Solving for p, Initial residual = 0.000215993, Final residual = 1.81737e-05, No Iterations 1
GAMG:  Solving for p, Initial residual = 9.81091e-05, Final residual = 7.66449e-06, No Iterations 1
GAMG:  Solving for p, Initial residual = 5.60107e-05, Final residual = 4.82459e-06, No Iterations 1
GAMG:  Solving for p, Initial residual = 3.59985e-05, Final residual = 3.33119e-06, No Iterations 1
GAMG:  Solving for p, Initial residual = 2.39153e-05, Final residual = 2.35305e-06, No Iterations 1
time step continuity errors : sum local = 8.49658e+09, global = 8.05027e+08, cumulative = 1.73829e+10
ExecutionTime = 117.26 s  ClockTime = 117 s

Time = 1999

smoothSolver:  Solving for Ux, Initial residual = 0.0172956, Final residual = 7.72904e-06, No Iterations 2
smoothSolver:  Solving for Uy, Initial residual = 0.0169949, Final residual = 1.01884e-05, No Iterations 2
smoothSolver:  Solving for Uz, Initial residual = 0.0174179, Final residual = 1.27004e-05, No Iterations 2
GAMG:  Solving for p, Initial residual = 0.000205535, Final residual = 1.71691e-05, No Iterations 1
GAMG:  Solving for p, Initial residual = 9.36233e-05, Final residual = 7.23722e-06, No Iterations 1
GAMG:  Solving for p, Initial residual = 5.35095e-05, Final residual = 4.5228e-06, No Iterations 1
GAMG:  Solving for p, Initial residual = 3.43752e-05, Final residual = 3.12113e-06, No Iterations 1
GAMG:  Solving for p, Initial residual = 2.28314e-05, Final residual = 2.22887e-06, No Iterations 1
time step continuity errors : sum local = 8.77781e+09, global = 7.26574e+08, cumulative = 1.81095e+10
ExecutionTime = 117.31 s  ClockTime = 117 s

Time = 2000

smoothSolver:  Solving for Ux, Initial residual = 0.0173122, Final residual = 7.77111e-06, No Iterations 2
smoothSolver:  Solving for Uy, Initial residual = 0.0170567, Final residual = 1.02639e-05, No Iterations 2
smoothSolver:  Solving for Uz, Initial residual = 0.0174452, Final residual = 1.26746e-05, No Iterations 2
GAMG:  Solving for p, Initial residual = 0.000199023, Final residual = 1.6366e-05, No Iterations 1
GAMG:  Solving for p, Initial residual = 9.05912e-05, Final residual = 6.96962e-06, No Iterations 1
GAMG:  Solving for p, Initial residual = 5.15351e-05, Final residual = 4.32281e-06, No Iterations 1
GAMG:  Solving for p, Initial residual = 3.31895e-05, Final residual = 3.0329e-06, No Iterations 1
GAMG:  Solving for p, Initial residual = 2.19093e-05, Final residual = 2.14855e-06, No Iterations 1
time step continuity errors : sum local = 9.06176e+09, global = 7.486e+08, cumulative = 1.88581e+10
ExecutionTime = 117.49 s  ClockTime = 117 s

End

