/*---------------------------------------------------------------------------*\
| =========                 |                                                 |
| \\      /  F ield         | OpenFOAM: The Open Source CFD Toolbox           |
|  \\    /   O peration     | Version:  2506                                  |
|   \\  /    A nd           | Website:  www.openfoam.com                      |
|    \\/     M anipulation  |                                                 |
\*---------------------------------------------------------------------------*/
Build  : _615aae61-20250627 OPENFOAM=2506 version=2506
Arch   : "LSB;label=32;scalar=64"
Exec   : simpleFoam -noFunctionObjects -case /home/ubuntu/fan_CFD_dataset/cases/fan_19
Date   : Nov 07 2025
Time   : 15:04:19
Host   : ip-172-31-37-87
PID    : 175628
I/O    : uncollated
Case   : /home/ubuntu/fan_CFD_dataset/cases/fan_19
nProcs : 1
trapFpe: Floating point exception trapping enabled (FOAM_SIGFPE).
fileModificationChecking : Monitoring run-time modified files using timeStampMaster (fileModificationSkew 5, maxFileModificationPolls 20)
allowSystemOperations : Allowing user-supplied system call operations

// * * * * * * * * * * * * * * * * * * * * * * * * * * * * * * * * * * * * * //
Create time

Create mesh for time = 0


SIMPLE: convergence criteria
    field U	 tolerance 1e-05
    field p	 tolerance 0.0001

Reading field p

Reading field U

Reading/calculating face flux field phi

Selecting incompressible transport model Newtonian
Selecting turbulence model type laminar
Selecting laminar stress model Stokes
No MRF models present

No finite volume options present

Starting time loop

Time = 1

smoothSolver:  Solving for Ux, Initial residual = 1, Final residual = 0.000271046, No Iterations 2
smoothSolver:  Solving for Uy, Initial residual = 1, Final residual = 0.000299526, No Iterations 2
smoothSolver:  Solving for Uz, Initial residual = 1, Final residual = 0.000478683, No Iterations 2
GAMG:  Solving for p, Initial residual = 1, Final residual = 0.0918298, No Iterations 3
GAMG:  Solving for p, Initial residual = 0.0805077, Final residual = 0.00543073, No Iterations 1
GAMG:  Solving for p, Initial residual = 0.0219537, Final residual = 0.00217928, No Iterations 1
GAMG:  Solving for p, Initial residual = 0.0112807, Final residual = 0.00053695, No Iterations 2
GAMG:  Solving for p, Initial residual = 0.00844556, Final residual = 0.000617557, No Iterations 1
time step continuity errors : sum local = 13.9209, global = -4.28908, cumulative = -4.28908
ExecutionTime = 0.26 s  ClockTime = 0 s

Time = 2

smoothSolver:  Solving for Ux, Initial residual = 0.0475765, Final residual = 2.07653e-05, No Iterations 2
smoothSolver:  Solving for Uy, Initial residual = 0.0453838, Final residual = 2.07068e-05, No Iterations 2
smoothSolver:  Solving for Uz, Initial residual = 0.174435, Final residual = 5.64699e-05, No Iterations 2
GAMG:  Solving for p, Initial residual = 0.26156, Final residual = 0.0105383, No Iterations 4
GAMG:  Solving for p, Initial residual = 0.0199039, Final residual = 0.00135687, No Iterations 1
GAMG:  Solving for p, Initial residual = 0.00650312, Final residual = 0.000620684, No Iterations 1
GAMG:  Solving for p, Initial residual = 0.00340211, Final residual = 0.00015001, No Iterations 2
GAMG:  Solving for p, Initial residual = 0.00262753, Final residual = 0.000190487, No Iterations 1
time step continuity errors : sum local = 15.3826, global = -3.36925, cumulative = -7.65833
ExecutionTime = 0.35 s  ClockTime = 0 s

Time = 3

smoothSolver:  Solving for Ux, Initial residual = 0.196033, Final residual = 8.98853e-05, No Iterations 2
smoothSolver:  Solving for Uy, Initial residual = 0.196839, Final residual = 9.00253e-05, No Iterations 2
smoothSolver:  Solving for Uz, Initial residual = 0.453222, Final residual = 0.000173738, No Iterations 2
GAMG:  Solving for p, Initial residual = 0.0294267, Final residual = 0.00164955, No Iterations 3
GAMG:  Solving for p, Initial residual = 0.0221372, Final residual = 0.00149965, No Iterations 1
GAMG:  Solving for p, Initial residual = 0.00692775, Final residual = 0.000671929, No Iterations 1
GAMG:  Solving for p, Initial residual = 0.00378223, Final residual = 0.000176086, No Iterations 2
GAMG:  Solving for p, Initial residual = 0.00298667, Final residual = 0.000216836, No Iterations 1
time step continuity errors : sum local = 8.14416, global = -1.88343, cumulative = -9.54177
ExecutionTime = 0.45 s  ClockTime = 0 s

Time = 4

smoothSolver:  Solving for Ux, Initial residual = 0.17911, Final residual = 8.02448e-05, No Iterations 2
smoothSolver:  Solving for Uy, Initial residual = 0.179287, Final residual = 8.02718e-05, No Iterations 2
smoothSolver:  Solving for Uz, Initial residual = 0.446878, Final residual = 0.000173687, No Iterations 2
GAMG:  Solving for p, Initial residual = 0.0140962, Final residual = 0.00117883, No Iterations 1
GAMG:  Solving for p, Initial residual = 0.00525513, Final residual = 0.000268382, No Iterations 2
GAMG:  Solving for p, Initial residual = 0.0043092, Final residual = 0.000291088, No Iterations 1
GAMG:  Solving for p, Initial residual = 0.00183876, Final residual = 8.69428e-05, No Iterations 2
GAMG:  Solving for p, Initial residual = 0.00157896, Final residual = 0.000111924, No Iterations 1
time step continuity errors : sum local = 2.8015, global = -0.528428, cumulative = -10.0702
ExecutionTime = 0.53 s  ClockTime = 0 s

Time = 5

smoothSolver:  Solving for Ux, Initial residual = 0.135206, Final residual = 5.93613e-05, No Iterations 2
smoothSolver:  Solving for Uy, Initial residual = 0.135062, Final residual = 5.98196e-05, No Iterations 2
smoothSolver:  Solving for Uz, Initial residual = 0.371258, Final residual = 0.000145572, No Iterations 2
GAMG:  Solving for p, Initial residual = 0.0150163, Final residual = 0.000966397, No Iterations 2
GAMG:  Solving for p, Initial residual = 0.0466983, Final residual = 0.00308331, No Iterations 1
GAMG:  Solving for p, Initial residual = 0.0164099, Final residual = 0.000767278, No Iterations 2
GAMG:  Solving for p, Initial residual = 0.0232254, Final residual = 0.00156353, No Iterations 1
GAMG:  Solving for p, Initial residual = 0.00992661, Final residual = 0.000449176, No Iterations 2
time step continuity errors : sum local = 1.70711, global = 0.203727, cumulative = -9.86647
ExecutionTime = 0.61 s  ClockTime = 0 s

Time = 6

smoothSolver:  Solving for Ux, Initial residual = 0.0927867, Final residual = 4.39657e-05, No Iterations 2
smoothSolver:  Solving for Uy, Initial residual = 0.0920523, Final residual = 4.36027e-05, No Iterations 2
smoothSolver:  Solving for Uz, Initial residual = 0.263706, Final residual = 0.000105369, No Iterations 2
GAMG:  Solving for p, Initial residual = 0.0199835, Final residual = 0.00101826, No Iterations 3
GAMG:  Solving for p, Initial residual = 0.0594873, Final residual = 0.00401763, No Iterations 1
GAMG:  Solving for p, Initial residual = 0.0188805, Final residual = 0.00181432, No Iterations 1
GAMG:  Solving for p, Initial residual = 0.00960072, Final residual = 0.000432727, No Iterations 2
GAMG:  Solving for p, Initial residual = 0.00682142, Final residual = 0.000486922, No Iterations 1
time step continuity errors : sum local = 6.98753, global = 1.60844, cumulative = -8.25803
ExecutionTime = 0.7 s  ClockTime = 1 s

Time = 7

smoothSolver:  Solving for Ux, Initial residual = 0.0557167, Final residual = 2.80128e-05, No Iterations 2
smoothSolver:  Solving for Uy, Initial residual = 0.0545791, Final residual = 2.7705e-05, No Iterations 2
smoothSolver:  Solving for Uz, Initial residual = 0.149768, Final residual = 6.4107e-05, No Iterations 2
GAMG:  Solving for p, Initial residual = 0.0310237, Final residual = 0.00179092, No Iterations 3
GAMG:  Solving for p, Initial residual = 0.0392017, Final residual = 0.00264982, No Iterations 1
GAMG:  Solving for p, Initial residual = 0.0124028, Final residual = 0.0011874, No Iterations 1
GAMG:  Solving for p, Initial residual = 0.00656493, Final residual = 0.000297266, No Iterations 2
GAMG:  Solving for p, Initial residual = 0.00492298, Final residual = 0.000352314, No Iterations 1
time step continuity errors : sum local = 8.36117, global = 1.90058, cumulative = -6.35744
ExecutionTime = 0.78 s  ClockTime = 1 s

Time = 8

smoothSolver:  Solving for Ux, Initial residual = 0.0318235, Final residual = 1.80786e-05, No Iterations 2
smoothSolver:  Solving for Uy, Initial residual = 0.0308183, Final residual = 1.77424e-05, No Iterations 2
smoothSolver:  Solving for Uz, Initial residual = 0.0600703, Final residual = 3.333e-05, No Iterations 2
GAMG:  Solving for p, Initial residual = 0.0833658, Final residual = 0.00461689, No Iterations 3
GAMG:  Solving for p, Initial residual = 0.0311495, Final residual = 0.00210015, No Iterations 1
GAMG:  Solving for p, Initial residual = 0.00992882, Final residual = 0.00095009, No Iterations 1
GAMG:  Solving for p, Initial residual = 0.00538531, Final residual = 0.000247234, No Iterations 2
GAMG:  Solving for p, Initial residual = 0.00415188, Final residual = 0.00029898, No Iterations 1
time step continuity errors : sum local = 7.70859, global = 1.74824, cumulative = -4.6092
ExecutionTime = 0.86 s  ClockTime = 1 s

Time = 9

smoothSolver:  Solving for Ux, Initial residual = 0.0307649, Final residual = 1.83932e-05, No Iterations 2
smoothSolver:  Solving for Uy, Initial residual = 0.0305353, Final residual = 1.80774e-05, No Iterations 2
smoothSolver:  Solving for Uz, Initial residual = 0.0705982, Final residual = 3.54627e-05, No Iterations 2
GAMG:  Solving for p, Initial residual = 0.0745113, Final residual = 0.00627591, No Iterations 2
GAMG:  Solving for p, Initial residual = 0.0239673, Final residual = 0.0016068, No Iterations 1
GAMG:  Solving for p, Initial residual = 0.00810474, Final residual = 0.000385583, No Iterations 2
GAMG:  Solving for p, Initial residual = 0.00634261, Final residual = 0.000435944, No Iterations 1
GAMG:  Solving for p, Initial residual = 0.00278882, Final residual = 0.000131366, No Iterations 2
time step continuity errors : sum local = 2.82995, global = 0.385146, cumulative = -4.22406
ExecutionTime = 0.95 s  ClockTime = 1 s

Time = 10

smoothSolver:  Solving for Ux, Initial residual = 0.043905, Final residual = 2.28024e-05, No Iterations 2
smoothSolver:  Solving for Uy, Initial residual = 0.0443745, Final residual = 2.24785e-05, No Iterations 2
smoothSolver:  Solving for Uz, Initial residual = 0.137945, Final residual = 5.78794e-05, No Iterations 2
GAMG:  Solving for p, Initial residual = 0.0392616, Final residual = 0.00370514, No Iterations 1
GAMG:  Solving for p, Initial residual = 0.0139006, Final residual = 0.000688432, No Iterations 2
GAMG:  Solving for p, Initial residual = 0.00942049, Final residual = 0.000630905, No Iterations 1
GAMG:  Solving for p, Initial residual = 0.00393035, Final residual = 0.000184319, No Iterations 2
GAMG:  Solving for p, Initial residual = 0.00327044, Final residual = 0.000229144, No Iterations 1
time step continuity errors : sum local = 3.27074, global = 0.657718, cumulative = -3.56634
ExecutionTime = 1.03 s  ClockTime = 1 s

Time = 11

smoothSolver:  Solving for Ux, Initial residual = 0.0538142, Final residual = 2.60032e-05, No Iterations 2
smoothSolver:  Solving for Uy, Initial residual = 0.0543617, Final residual = 2.58823e-05, No Iterations 2
smoothSolver:  Solving for Uz, Initial residual = 0.182087, Final residual = 7.3138e-05, No Iterations 2
GAMG:  Solving for p, Initial residual = 0.0343768, Final residual = 0.00274748, No Iterations 1
GAMG:  Solving for p, Initial residual = 0.0129798, Final residual = 0.000565475, No Iterations 2
GAMG:  Solving for p, Initial residual = 0.011558, Final residual = 0.000765053, No Iterations 1
GAMG:  Solving for p, Initial residual = 0.00464654, Final residual = 0.000206746, No Iterations 2
GAMG:  Solving for p, Initial residual = 0.00393343, Final residual = 0.000280433, No Iterations 1
time step continuity errors : sum local = 1.5512, global = -0.380723, cumulative = -3.94706
ExecutionTime = 1.12 s  ClockTime = 1 s

Time = 12

smoothSolver:  Solving for Ux, Initial residual = 0.0551136, Final residual = 2.59694e-05, No Iterations 2
smoothSolver:  Solving for Uy, Initial residual = 0.0551381, Final residual = 2.55834e-05, No Iterations 2
smoothSolver:  Solving for Uz, Initial residual = 0.184337, Final residual = 7.28666e-05, No Iterations 2
GAMG:  Solving for p, Initial residual = 0.0367275, Final residual = 0.0018595, No Iterations 2
GAMG:  Solving for p, Initial residual = 0.144876, Final residual = 0.00936502, No Iterations 1
GAMG:  Solving for p, Initial residual = 0.0418478, Final residual = 0.00190007, No Iterations 2
GAMG:  Solving for p, Initial residual = 0.0198545, Final residual = 0.00132318, No Iterations 1
GAMG:  Solving for p, Initial residual = 0.00772516, Final residual = 0.000335371, No Iterations 2
time step continuity errors : sum local = 1.19669, global = -0.176792, cumulative = -4.12385
ExecutionTime = 1.2 s  ClockTime = 1 s

Time = 13

smoothSolver:  Solving for Ux, Initial residual = 0.046422, Final residual = 2.26355e-05, No Iterations 2
smoothSolver:  Solving for Uy, Initial residual = 0.0456097, Final residual = 2.22255e-05, No Iterations 2
smoothSolver:  Solving for Uz, Initial residual = 0.137052, Final residual = 5.56214e-05, No Iterations 2
GAMG:  Solving for p, Initial residual = 0.0462731, Final residual = 0.00312327, No Iterations 2
GAMG:  Solving for p, Initial residual = 0.0497096, Final residual = 0.0032694, No Iterations 1
GAMG:  Solving for p, Initial residual = 0.0154729, Final residual = 0.000718391, No Iterations 2
GAMG:  Solving for p, Initial residual = 0.0105723, Final residual = 0.000713925, No Iterations 1
GAMG:  Solving for p, Initial residual = 0.00424215, Final residual = 0.000188936, No Iterations 2
time step continuity errors : sum local = 1.69592, global = -0.242262, cumulative = -4.36612
ExecutionTime = 1.29 s  ClockTime = 1 s

Time = 14

smoothSolver:  Solving for Ux, Initial residual = 0.0337446, Final residual = 1.78611e-05, No Iterations 2
smoothSolver:  Solving for Uy, Initial residual = 0.0325594, Final residual = 1.73467e-05, No Iterations 2
smoothSolver:  Solving for Uz, Initial residual = 0.0690682, Final residual = 3.35326e-05, No Iterations 2
GAMG:  Solving for p, Initial residual = 0.081665, Final residual = 0.0062364, No Iterations 2
GAMG:  Solving for p, Initial residual = 0.036049, Final residual = 0.00238541, No Iterations 1
GAMG:  Solving for p, Initial residual = 0.011516, Final residual = 0.000540964, No Iterations 2
GAMG:  Solving for p, Initial residual = 0.00851923, Final residual = 0.000576903, No Iterations 1
GAMG:  Solving for p, Initial residual = 0.00351391, Final residual = 0.000158787, No Iterations 2
time step continuity errors : sum local = 1.79389, global = -0.255585, cumulative = -4.6217
ExecutionTime = 1.37 s  ClockTime = 1 s

Time = 15

smoothSolver:  Solving for Ux, Initial residual = 0.027144, Final residual = 1.55472e-05, No Iterations 2
smoothSolver:  Solving for Uy, Initial residual = 0.0264814, Final residual = 1.49459e-05, No Iterations 2
smoothSolver:  Solving for Uz, Initial residual = 0.0426366, Final residual = 2.4843e-05, No Iterations 2
GAMG:  Solving for p, Initial residual = 0.195046, Final residual = 0.014097, No Iterations 2
GAMG:  Solving for p, Initial residual = 0.0278028, Final residual = 0.0018626, No Iterations 1
GAMG:  Solving for p, Initial residual = 0.00924086, Final residual = 0.000441592, No Iterations 2
GAMG:  Solving for p, Initial residual = 0.00718711, Final residual = 0.000490982, No Iterations 1
GAMG:  Solving for p, Initial residual = 0.00305833, Final residual = 0.00014103, No Iterations 2
time step continuity errors : sum local = 1.52595, global = -0.21482, cumulative = -4.83652
ExecutionTime = 1.45 s  ClockTime = 1 s

Time = 16

smoothSolver:  Solving for Ux, Initial residual = 0.0280101, Final residual = 1.55805e-05, No Iterations 2
smoothSolver:  Solving for Uy, Initial residual = 0.0275571, Final residual = 1.51616e-05, No Iterations 2
smoothSolver:  Solving for Uz, Initial residual = 0.0729507, Final residual = 3.25817e-05, No Iterations 2
GAMG:  Solving for p, Initial residual = 0.0550621, Final residual = 0.00298816, No Iterations 2
GAMG:  Solving for p, Initial residual = 0.0197642, Final residual = 0.00136527, No Iterations 1
GAMG:  Solving for p, Initial residual = 0.0071951, Final residual = 0.000359283, No Iterations 2
GAMG:  Solving for p, Initial residual = 0.00590888, Final residual = 0.000410414, No Iterations 1
GAMG:  Solving for p, Initial residual = 0.00262926, Final residual = 0.000125199, No Iterations 2
time step continuity errors : sum local = 1.04061, global = -0.143591, cumulative = -4.98011
ExecutionTime = 1.54 s  ClockTime = 1 s

Time = 17

smoothSolver:  Solving for Ux, Initial residual = 0.0292367, Final residual = 1.55596e-05, No Iterations 2
smoothSolver:  Solving for Uy, Initial residual = 0.0289237, Final residual = 1.52546e-05, No Iterations 2
smoothSolver:  Solving for Uz, Initial residual = 0.09142, Final residual = 3.68743e-05, No Iterations 2
GAMG:  Solving for p, Initial residual = 0.0382162, Final residual = 0.00372893, No Iterations 1
GAMG:  Solving for p, Initial residual = 0.0138647, Final residual = 0.000494631, No Iterations 2
GAMG:  Solving for p, Initial residual = 0.00825989, Final residual = 0.00059897, No Iterations 1
GAMG:  Solving for p, Initial residual = 0.00386852, Final residual = 0.000382649, No Iterations 1
GAMG:  Solving for p, Initial residual = 0.00254643, Final residual = 0.000124007, No Iterations 2
time step continuity errors : sum local = 0.562171, global = -0.0899781, cumulative = -5.07009
ExecutionTime = 1.62 s  ClockTime = 1 s

Time = 18

smoothSolver:  Solving for Ux, Initial residual = 0.0276211, Final residual = 1.43935e-05, No Iterations 2
smoothSolver:  Solving for Uy, Initial residual = 0.027224, Final residual = 1.42585e-05, No Iterations 2
smoothSolver:  Solving for Uz, Initial residual = 0.0872325, Final residual = 3.41865e-05, No Iterations 2
GAMG:  Solving for p, Initial residual = 0.0354921, Final residual = 0.00153031, No Iterations 2
GAMG:  Solving for p, Initial residual = 0.05469, Final residual = 0.00355244, No Iterations 1
GAMG:  Solving for p, Initial residual = 0.019617, Final residual = 0.000870681, No Iterations 2
GAMG:  Solving for p, Initial residual = 0.0256108, Final residual = 0.00169835, No Iterations 1
GAMG:  Solving for p, Initial residual = 0.0108641, Final residual = 0.000475049, No Iterations 2
time step continuity errors : sum local = 0.462078, global = 0.0776343, cumulative = -4.99246
ExecutionTime = 1.7 s  ClockTime = 2 s

Time = 19

smoothSolver:  Solving for Ux, Initial residual = 0.023621, Final residual = 1.249e-05, No Iterations 2
smoothSolver:  Solving for Uy, Initial residual = 0.023001, Final residual = 1.22975e-05, No Iterations 2
smoothSolver:  Solving for Uz, Initial residual = 0.0681073, Final residual = 2.73683e-05, No Iterations 2
GAMG:  Solving for p, Initial residual = 0.0386718, Final residual = 0.00225243, No Iterations 2
GAMG:  Solving for p, Initial residual = 0.075531, Final residual = 0.00492298, No Iterations 1
GAMG:  Solving for p, Initial residual = 0.0225058, Final residual = 0.0010139, No Iterations 2
GAMG:  Solving for p, Initial residual = 0.0134777, Final residual = 0.000891383, No Iterations 1
GAMG:  Solving for p, Initial residual = 0.00525951, Final residual = 0.000227071, No Iterations 2
time step continuity errors : sum local = 0.659296, global = 0.101738, cumulative = -4.89072
ExecutionTime = 1.79 s  ClockTime = 2 s

Time = 20

smoothSolver:  Solving for Ux, Initial residual = 0.0189512, Final residual = 1.03778e-05, No Iterations 2
smoothSolver:  Solving for Uy, Initial residual = 0.018317, Final residual = 1.01848e-05, No Iterations 2
smoothSolver:  Solving for Uz, Initial residual = 0.0427157, Final residual = 1.87448e-05, No Iterations 2
GAMG:  Solving for p, Initial residual = 0.0502803, Final residual = 0.00345324, No Iterations 2
GAMG:  Solving for p, Initial residual = 0.0429299, Final residual = 0.00283498, No Iterations 1
GAMG:  Solving for p, Initial residual = 0.0133013, Final residual = 0.000609255, No Iterations 2
GAMG:  Solving for p, Initial residual = 0.00928738, Final residual = 0.000622784, No Iterations 1
GAMG:  Solving for p, Initial residual = 0.00371677, Final residual = 0.000163492, No Iterations 2
time step continuity errors : sum local = 0.770567, global = 0.117704, cumulative = -4.77301
ExecutionTime = 1.87 s  ClockTime = 2 s

Time = 21

smoothSolver:  Solving for Ux, Initial residual = 0.0158988, Final residual = 8.90954e-06, No Iterations 2
smoothSolver:  Solving for Uy, Initial residual = 0.015541, Final residual = 8.84441e-06, No Iterations 2
smoothSolver:  Solving for Uz, Initial residual = 0.0236218, Final residual = 1.27141e-05, No Iterations 2
GAMG:  Solving for p, Initial residual = 0.0982691, Final residual = 0.00689461, No Iterations 2
GAMG:  Solving for p, Initial residual = 0.0317952, Final residual = 0.00213602, No Iterations 1
GAMG:  Solving for p, Initial residual = 0.0102296, Final residual = 0.000478153, No Iterations 2
GAMG:  Solving for p, Initial residual = 0.00763747, Final residual = 0.000519193, No Iterations 1
GAMG:  Solving for p, Initial residual = 0.00314754, Final residual = 0.000141366, No Iterations 2
time step continuity errors : sum local = 0.731816, global = 0.108723, cumulative = -4.66429
ExecutionTime = 1.95 s  ClockTime = 2 s

Time = 22

smoothSolver:  Solving for Ux, Initial residual = 0.0150724, Final residual = 8.29075e-06, No Iterations 2
smoothSolver:  Solving for Uy, Initial residual = 0.0150837, Final residual = 8.25428e-06, No Iterations 2
smoothSolver:  Solving for Uz, Initial residual = 0.0247997, Final residual = 1.28042e-05, No Iterations 2
GAMG:  Solving for p, Initial residual = 0.117567, Final residual = 0.00695221, No Iterations 2
GAMG:  Solving for p, Initial residual = 0.024042, Final residual = 0.00164743, No Iterations 1
GAMG:  Solving for p, Initial residual = 0.00823925, Final residual = 0.000396191, No Iterations 2
GAMG:  Solving for p, Initial residual = 0.00649014, Final residual = 0.000446317, No Iterations 1
GAMG:  Solving for p, Initial residual = 0.00276945, Final residual = 0.000126919, No Iterations 2
time step continuity errors : sum local = 0.572635, global = 0.0814357, cumulative = -4.58286
ExecutionTime = 2.04 s  ClockTime = 2 s

Time = 23

smoothSolver:  Solving for Ux, Initial residual = 0.0154398, Final residual = 8.02347e-06, No Iterations 2
smoothSolver:  Solving for Uy, Initial residual = 0.0156055, Final residual = 8.0135e-06, No Iterations 2
smoothSolver:  Solving for Uz, Initial residual = 0.0332376, Final residual = 1.49487e-05, No Iterations 2
GAMG:  Solving for p, Initial residual = 0.0554948, Final residual = 0.00525127, No Iterations 1
GAMG:  Solving for p, Initial residual = 0.0187985, Final residual = 0.000936915, No Iterations 2
GAMG:  Solving for p, Initial residual = 0.0116847, Final residual = 0.000803524, No Iterations 1
GAMG:  Solving for p, Initial residual = 0.0047626, Final residual = 0.000224993, No Iterations 2
GAMG:  Solving for p, Initial residual = 0.00390047, Final residual = 0.000273501, No Iterations 1
time step continuity errors : sum local = 0.834698, global = 0.163824, cumulative = -4.41903
ExecutionTime = 2.12 s  ClockTime = 2 s

Time = 24

smoothSolver:  Solving for Ux, Initial residual = 0.0156619, Final residual = 7.82895e-06, No Iterations 2
smoothSolver:  Solving for Uy, Initial residual = 0.0157801, Final residual = 7.78924e-06, No Iterations 2
smoothSolver:  Solving for Uz, Initial residual = 0.036482, Final residual = 1.55565e-05, No Iterations 2
GAMG:  Solving for p, Initial residual = 0.0452881, Final residual = 0.00140466, No Iterations 2
GAMG:  Solving for p, Initial residual = 0.0258259, Final residual = 0.00180496, No Iterations 1
GAMG:  Solving for p, Initial residual = 0.00952683, Final residual = 0.000408464, No Iterations 2
GAMG:  Solving for p, Initial residual = 0.00762003, Final residual = 0.000560837, No Iterations 1
GAMG:  Solving for p, Initial residual = 0.00358382, Final residual = 0.000160608, No Iterations 2
time step continuity errors : sum local = 0.209403, global = -0.0492259, cumulative = -4.46826
ExecutionTime = 2.2 s  ClockTime = 2 s

Time = 25

smoothSolver:  Solving for Ux, Initial residual = 0.0152897, Final residual = 7.54206e-06, No Iterations 2
smoothSolver:  Solving for Uy, Initial residual = 0.0152442, Final residual = 7.48127e-06, No Iterations 2
smoothSolver:  Solving for Uz, Initial residual = 0.0332309, Final residual = 1.40411e-05, No Iterations 2
GAMG:  Solving for p, Initial residual = 0.0460208, Final residual = 0.00214152, No Iterations 2
GAMG:  Solving for p, Initial residual = 0.0972053, Final residual = 0.00643731, No Iterations 1
GAMG:  Solving for p, Initial residual = 0.0282517, Final residual = 0.00125343, No Iterations 2
GAMG:  Solving for p, Initial residual = 0.0149781, Final residual = 0.00100907, No Iterations 1
GAMG:  Solving for p, Initial residual = 0.00594005, Final residual = 0.000257587, No Iterations 2
time step continuity errors : sum local = 0.258861, global = -0.045054, cumulative = -4.51331
ExecutionTime = 2.29 s  ClockTime = 2 s

Time = 26

smoothSolver:  Solving for Ux, Initial residual = 0.0144061, Final residual = 7.10017e-06, No Iterations 2
smoothSolver:  Solving for Uy, Initial residual = 0.0142269, Final residual = 7.06562e-06, No Iterations 2
smoothSolver:  Solving for Uz, Initial residual = 0.0251586, Final residual = 1.11642e-05, No Iterations 2
GAMG:  Solving for p, Initial residual = 0.0569841, Final residual = 0.00314383, No Iterations 2
GAMG:  Solving for p, Initial residual = 0.0400718, Final residual = 0.00268797, No Iterations 1
GAMG:  Solving for p, Initial residual = 0.0123297, Final residual = 0.000555613, No Iterations 2
GAMG:  Solving for p, Initial residual = 0.00842447, Final residual = 0.0005675, No Iterations 1
GAMG:  Solving for p, Initial residual = 0.00335077, Final residual = 0.000145673, No Iterations 2
time step continuity errors : sum local = 0.32767, global = -0.0532187, cumulative = -4.56653
ExecutionTime = 2.37 s  ClockTime = 2 s

Time = 27

smoothSolver:  Solving for Ux, Initial residual = 0.0134948, Final residual = 6.72278e-06, No Iterations 2
smoothSolver:  Solving for Uy, Initial residual = 0.0132468, Final residual = 6.71329e-06, No Iterations 2
smoothSolver:  Solving for Uz, Initial residual = 0.0173324, Final residual = 8.65166e-06, No Iterations 2
GAMG:  Solving for p, Initial residual = 0.098794, Final residual = 0.00573522, No Iterations 2
GAMG:  Solving for p, Initial residual = 0.0287214, Final residual = 0.00194638, No Iterations 1
GAMG:  Solving for p, Initial residual = 0.00915153, Final residual = 0.000421156, No Iterations 2
GAMG:  Solving for p, Initial residual = 0.00676148, Final residual = 0.000460417, No Iterations 1
GAMG:  Solving for p, Initial residual = 0.00274485, Final residual = 0.00012112, No Iterations 2
time step continuity errors : sum local = 0.347196, global = -0.0545122, cumulative = -4.62104
ExecutionTime = 2.47 s  ClockTime = 2 s

Time = 28

smoothSolver:  Solving for Ux, Initial residual = 0.0128799, Final residual = 6.50199e-06, No Iterations 2
smoothSolver:  Solving for Uy, Initial residual = 0.0126374, Final residual = 6.48501e-06, No Iterations 2
smoothSolver:  Solving for Uz, Initial residual = 0.0151009, Final residual = 7.84233e-06, No Iterations 2
GAMG:  Solving for p, Initial residual = 0.121416, Final residual = 0.00649695, No Iterations 2
GAMG:  Solving for p, Initial residual = 0.0220567, Final residual = 0.00151847, No Iterations 1
GAMG:  Solving for p, Initial residual = 0.0074334, Final residual = 0.000350249, No Iterations 2
GAMG:  Solving for p, Initial residual = 0.00580051, Final residual = 0.000399723, No Iterations 1
GAMG:  Solving for p, Initial residual = 0.00242515, Final residual = 0.000108515, No Iterations 2
time step continuity errors : sum local = 0.30944, global = -0.0470133, cumulative = -4.66806
ExecutionTime = 2.55 s  ClockTime = 2 s

Time = 29

smoothSolver:  Solving for Ux, Initial residual = 0.0125367, Final residual = 6.37669e-06, No Iterations 2
smoothSolver:  Solving for Uy, Initial residual = 0.0123489, Final residual = 6.33837e-06, No Iterations 2
smoothSolver:  Solving for Uz, Initial residual = 0.0177453, Final residual = 8.30539e-06, No Iterations 2
GAMG:  Solving for p, Initial residual = 0.057885, Final residual = 0.00529451, No Iterations 1
GAMG:  Solving for p, Initial residual = 0.0167694, Final residual = 0.000868192, No Iterations 2
GAMG:  Solving for p, Initial residual = 0.0105777, Final residual = 0.000719763, No Iterations 1
GAMG:  Solving for p, Initial residual = 0.00412638, Final residual = 0.000189969, No Iterations 2
GAMG:  Solving for p, Initial residual = 0.00338498, Final residual = 0.000238708, No Iterations 1
time step continuity errors : sum local = 0.564834, global = -0.126806, cumulative = -4.79486
ExecutionTime = 2.63 s  ClockTime = 2 s

Time = 30

smoothSolver:  Solving for Ux, Initial residual = 0.0122511, Final residual = 6.25953e-06, No Iterations 2
smoothSolver:  Solving for Uy, Initial residual = 0.0120919, Final residual = 6.23456e-06, No Iterations 2
smoothSolver:  Solving for Uz, Initial residual = 0.0201555, Final residual = 8.74789e-06, No Iterations 2
GAMG:  Solving for p, Initial residual = 0.0435987, Final residual = 0.00405743, No Iterations 1
GAMG:  Solving for p, Initial residual = 0.0147538, Final residual = 0.000551213, No Iterations 2
GAMG:  Solving for p, Initial residual = 0.0083598, Final residual = 0.00060902, No Iterations 1
GAMG:  Solving for p, Initial residual = 0.00368967, Final residual = 0.000169534, No Iterations 2
GAMG:  Solving for p, Initial residual = 0.0029227, Final residual = 0.000216261, No Iterations 1
time step continuity errors : sum local = 0.33808, global = -0.0482331, cumulative = -4.84309
ExecutionTime = 2.71 s  ClockTime = 3 s

Time = 31

smoothSolver:  Solving for Ux, Initial residual = 0.0118515, Final residual = 6.05464e-06, No Iterations 2
smoothSolver:  Solving for Uy, Initial residual = 0.0117096, Final residual = 6.03964e-06, No Iterations 2
smoothSolver:  Solving for Uz, Initial residual = 0.0201256, Final residual = 8.53017e-06, No Iterations 2
GAMG:  Solving for p, Initial residual = 0.0405876, Final residual = 0.00361771, No Iterations 1
GAMG:  Solving for p, Initial residual = 0.0166034, Final residual = 0.000729123, No Iterations 2
GAMG:  Solving for p, Initial residual = 0.0158999, Final residual = 0.00106159, No Iterations 1
GAMG:  Solving for p, Initial residual = 0.00625373, Final residual = 0.000269126, No Iterations 2
GAMG:  Solving for p, Initial residual = 0.00528613, Final residual = 0.000378842, No Iterations 1
time step continuity errors : sum local = 0.296416, global = 0.08401, cumulative = -4.75908
ExecutionTime = 2.79 s  ClockTime = 3 s

Time = 32

smoothSolver:  Solving for Ux, Initial residual = 0.0113514, Final residual = 5.77056e-06, No Iterations 2
smoothSolver:  Solving for Uy, Initial residual = 0.0112241, Final residual = 5.75316e-06, No Iterations 2
smoothSolver:  Solving for Uz, Initial residual = 0.0179727, Final residual = 7.72689e-06, No Iterations 2
GAMG:  Solving for p, Initial residual = 0.042535, Final residual = 0.00405565, No Iterations 1
GAMG:  Solving for p, Initial residual = 0.0309049, Final residual = 0.00139508, No Iterations 2
GAMG:  Solving for p, Initial residual = 0.0472198, Final residual = 0.00304767, No Iterations 1
GAMG:  Solving for p, Initial residual = 0.0163142, Final residual = 0.000703357, No Iterations 2
GAMG:  Solving for p, Initial residual = 0.0103773, Final residual = 0.000709779, No Iterations 1
time step continuity errors : sum local = 0.373277, global = 0.103662, cumulative = -4.65542
ExecutionTime = 2.87 s  ClockTime = 3 s

Time = 33

smoothSolver:  Solving for Ux, Initial residual = 0.0108472, Final residual = 5.48098e-06, No Iterations 2
smoothSolver:  Solving for Uy, Initial residual = 0.0107433, Final residual = 5.42951e-06, No Iterations 2
smoothSolver:  Solving for Uz, Initial residual = 0.0147675, Final residual = 6.69829e-06, No Iterations 2
GAMG:  Solving for p, Initial residual = 0.0494276, Final residual = 0.0022255, No Iterations 2
GAMG:  Solving for p, Initial residual = 0.0503211, Final residual = 0.00333136, No Iterations 1
GAMG:  Solving for p, Initial residual = 0.0155235, Final residual = 0.000696137, No Iterations 2
GAMG:  Solving for p, Initial residual = 0.0100323, Final residual = 0.000675978, No Iterations 1
GAMG:  Solving for p, Initial residual = 0.00404828, Final residual = 0.000176839, No Iterations 2
time step continuity errors : sum local = 0.167073, global = 0.0286095, cumulative = -4.62681
ExecutionTime = 2.95 s  ClockTime = 3 s

Time = 34

smoothSolver:  Solving for Ux, Initial residual = 0.010488, Final residual = 5.21688e-06, No Iterations 2
smoothSolver:  Solving for Uy, Initial residual = 0.0104016, Final residual = 5.16598e-06, No Iterations 2
smoothSolver:  Solving for Uz, Initial residual = 0.0123026, Final residual = 5.85112e-06, No Iterations 2
GAMG:  Solving for p, Initial residual = 0.0657367, Final residual = 0.00644763, No Iterations 1
GAMG:  Solving for p, Initial residual = 0.0496628, Final residual = 0.00233596, No Iterations 2
GAMG:  Solving for p, Initial residual = 0.018469, Final residual = 0.0012212, No Iterations 1
GAMG:  Solving for p, Initial residual = 0.00683664, Final residual = 0.000302998, No Iterations 2
GAMG:  Solving for p, Initial residual = 0.00519678, Final residual = 0.000360166, No Iterations 1
time step continuity errors : sum local = 0.403286, global = 0.105314, cumulative = -4.5215
ExecutionTime = 3.04 s  ClockTime = 3 s

Time = 35

smoothSolver:  Solving for Ux, Initial residual = 0.0102876, Final residual = 5.06516e-06, No Iterations 2
smoothSolver:  Solving for Uy, Initial residual = 0.0102355, Final residual = 4.98873e-06, No Iterations 2
smoothSolver:  Solving for Uz, Initial residual = 0.0115759, Final residual = 5.52494e-06, No Iterations 2
GAMG:  Solving for p, Initial residual = 0.0983711, Final residual = 0.00817245, No Iterations 1
GAMG:  Solving for p, Initial residual = 0.0376562, Final residual = 0.00187529, No Iterations 2
GAMG:  Solving for p, Initial residual = 0.0167942, Final residual = 0.00113964, No Iterations 1
GAMG:  Solving for p, Initial residual = 0.00634436, Final residual = 0.000286647, No Iterations 2
GAMG:  Solving for p, Initial residual = 0.00488753, Final residual = 0.000346735, No Iterations 1
time step continuity errors : sum local = 0.349608, global = 0.0876059, cumulative = -4.43389
ExecutionTime = 3.12 s  ClockTime = 3 s

Time = 36

smoothSolver:  Solving for Ux, Initial residual = 0.0101822, Final residual = 4.93491e-06, No Iterations 2
smoothSolver:  Solving for Uy, Initial residual = 0.0101309, Final residual = 4.8444e-06, No Iterations 2
smoothSolver:  Solving for Uz, Initial residual = 0.0118005, Final residual = 5.56792e-06, No Iterations 2
GAMG:  Solving for p, Initial residual = 0.139519, Final residual = 0.0111037, No Iterations 1
GAMG:  Solving for p, Initial residual = 0.0354096, Final residual = 0.00159365, No Iterations 2
GAMG:  Solving for p, Initial residual = 0.0158548, Final residual = 0.00113889, No Iterations 1
GAMG:  Solving for p, Initial residual = 0.0063891, Final residual = 0.000304393, No Iterations 2
GAMG:  Solving for p, Initial residual = 0.00491874, Final residual = 0.000367704, No Iterations 1
time step continuity errors : sum local = 0.267831, global = 0.0584693, cumulative = -4.37542
ExecutionTime = 3.19 s  ClockTime = 3 s

Time = 37

smoothSolver:  Solving for Ux, Initial residual = 0.0100702, Final residual = 4.81934e-06, No Iterations 2
smoothSolver:  Solving for Uy, Initial residual = 0.0100145, Final residual = 4.74144e-06, No Iterations 2
smoothSolver:  Solving for Uz, Initial residual = 0.0119339, Final residual = 5.54052e-06, No Iterations 2
GAMG:  Solving for p, Initial residual = 0.10768, Final residual = 0.00880867, No Iterations 1
GAMG:  Solving for p, Initial residual = 0.0334457, Final residual = 0.00112378, No Iterations 2
GAMG:  Solving for p, Initial residual = 0.0172171, Final residual = 0.00134464, No Iterations 1
GAMG:  Solving for p, Initial residual = 0.00776625, Final residual = 0.00029286, No Iterations 2
GAMG:  Solving for p, Initial residual = 0.00531903, Final residual = 0.000431598, No Iterations 1
time step continuity errors : sum local = 0.166265, global = 0.00805001, cumulative = -4.36737
ExecutionTime = 3.27 s  ClockTime = 3 s

Time = 38

smoothSolver:  Solving for Ux, Initial residual = 0.00990377, Final residual = 4.68771e-06, No Iterations 2
smoothSolver:  Solving for Uy, Initial residual = 0.00983873, Final residual = 4.62032e-06, No Iterations 2
smoothSolver:  Solving for Uz, Initial residual = 0.0116295, Final residual = 5.38927e-06, No Iterations 2
GAMG:  Solving for p, Initial residual = 0.10602, Final residual = 0.00849604, No Iterations 1
GAMG:  Solving for p, Initial residual = 0.0401303, Final residual = 0.00175447, No Iterations 2
GAMG:  Solving for p, Initial residual = 0.0185754, Final residual = 0.00123367, No Iterations 1
GAMG:  Solving for p, Initial residual = 0.00694496, Final residual = 0.000318473, No Iterations 2
GAMG:  Solving for p, Initial residual = 0.00494001, Final residual = 0.00035597, No Iterations 1
time step continuity errors : sum local = 0.182915, global = -0.0508895, cumulative = -4.41826
ExecutionTime = 3.35 s  ClockTime = 3 s

Time = 39

smoothSolver:  Solving for Ux, Initial residual = 0.00971228, Final residual = 4.59171e-06, No Iterations 2
smoothSolver:  Solving for Uy, Initial residual = 0.00962944, Final residual = 4.52441e-06, No Iterations 2
smoothSolver:  Solving for Uz, Initial residual = 0.0110554, Final residual = 5.14369e-06, No Iterations 2
GAMG:  Solving for p, Initial residual = 0.123736, Final residual = 0.00983615, No Iterations 1
GAMG:  Solving for p, Initial residual = 0.0321256, Final residual = 0.00156267, No Iterations 2
GAMG:  Solving for p, Initial residual = 0.0147401, Final residual = 0.00096061, No Iterations 1
GAMG:  Solving for p, Initial residual = 0.00529104, Final residual = 0.000240941, No Iterations 2
GAMG:  Solving for p, Initial residual = 0.00403556, Final residual = 0.000282537, No Iterations 1
time step continuity errors : sum local = 0.22222, global = -0.0621186, cumulative = -4.48038
ExecutionTime = 3.43 s  ClockTime = 3 s

Time = 40

smoothSolver:  Solving for Ux, Initial residual = 0.00951667, Final residual = 4.51365e-06, No Iterations 2
smoothSolver:  Solving for Uy, Initial residual = 0.00941629, Final residual = 4.44268e-06, No Iterations 2
smoothSolver:  Solving for Uz, Initial residual = 0.0105691, Final residual = 4.87897e-06, No Iterations 2
GAMG:  Solving for p, Initial residual = 0.107347, Final residual = 0.00846533, No Iterations 1
GAMG:  Solving for p, Initial residual = 0.0238297, Final residual = 0.00119491, No Iterations 2
GAMG:  Solving for p, Initial residual = 0.0125476, Final residual = 0.000825276, No Iterations 1
GAMG:  Solving for p, Initial residual = 0.00455539, Final residual = 0.000209567, No Iterations 2
GAMG:  Solving for p, Initial residual = 0.00358817, Final residual = 0.000253332, No Iterations 1
time step continuity errors : sum local = 0.24084, global = -0.0655083, cumulative = -4.54589
ExecutionTime = 3.51 s  ClockTime = 3 s

Time = 41

smoothSolver:  Solving for Ux, Initial residual = 0.00932423, Final residual = 4.44398e-06, No Iterations 2
smoothSolver:  Solving for Uy, Initial residual = 0.00922619, Final residual = 4.35293e-06, No Iterations 2
smoothSolver:  Solving for Uz, Initial residual = 0.0103783, Final residual = 4.75056e-06, No Iterations 2
GAMG:  Solving for p, Initial residual = 0.0781007, Final residual = 0.00588003, No Iterations 1
GAMG:  Solving for p, Initial residual = 0.0192594, Final residual = 0.000957544, No Iterations 2
GAMG:  Solving for p, Initial residual = 0.0109426, Final residual = 0.000732854, No Iterations 1
GAMG:  Solving for p, Initial residual = 0.0040767, Final residual = 0.00018941, No Iterations 2
GAMG:  Solving for p, Initial residual = 0.0032666, Final residual = 0.00023405, No Iterations 1
time step continuity errors : sum local = 0.232092, global = -0.0602916, cumulative = -4.60618
ExecutionTime = 3.6 s  ClockTime = 3 s

Time = 42

smoothSolver:  Solving for Ux, Initial residual = 0.00915046, Final residual = 4.35353e-06, No Iterations 2
smoothSolver:  Solving for Uy, Initial residual = 0.00905813, Final residual = 4.26685e-06, No Iterations 2
smoothSolver:  Solving for Uz, Initial residual = 0.0104222, Final residual = 4.71542e-06, No Iterations 2
GAMG:  Solving for p, Initial residual = 0.062772, Final residual = 0.0045377, No Iterations 1
GAMG:  Solving for p, Initial residual = 0.0167824, Final residual = 0.000759044, No Iterations 2
GAMG:  Solving for p, Initial residual = 0.00934099, Final residual = 0.000640292, No Iterations 1
GAMG:  Solving for p, Initial residual = 0.00364758, Final residual = 0.000171654, No Iterations 2
GAMG:  Solving for p, Initial residual = 0.00294006, Final residual = 0.000214717, No Iterations 1
time step continuity errors : sum local = 0.199084, global = -0.0474486, cumulative = -4.65363
ExecutionTime = 3.67 s  ClockTime = 3 s

Time = 43

smoothSolver:  Solving for Ux, Initial residual = 0.00898568, Final residual = 4.29171e-06, No Iterations 2
smoothSolver:  Solving for Uy, Initial residual = 0.00890033, Final residual = 4.20811e-06, No Iterations 2
smoothSolver:  Solving for Uz, Initial residual = 0.0105115, Final residual = 4.72433e-06, No Iterations 2
GAMG:  Solving for p, Initial residual = 0.0549925, Final residual = 0.00390243, No Iterations 1
GAMG:  Solving for p, Initial residual = 0.0154609, Final residual = 0.00140463, No Iterations 1
GAMG:  Solving for p, Initial residual = 0.00660204, Final residual = 0.000305508, No Iterations 2
GAMG:  Solving for p, Initial residual = 0.004644, Final residual = 0.000334624, No Iterations 1
GAMG:  Solving for p, Initial residual = 0.0020712, Final residual = 0.000102419, No Iterations 2
time step continuity errors : sum local = 0.0806345, global = -0.0130112, cumulative = -4.66664
ExecutionTime = 3.75 s  ClockTime = 4 s

Time = 44

smoothSolver:  Solving for Ux, Initial residual = 0.00882288, Final residual = 4.19438e-06, No Iterations 2
smoothSolver:  Solving for Uy, Initial residual = 0.00873932, Final residual = 4.10876e-06, No Iterations 2
smoothSolver:  Solving for Uz, Initial residual = 0.0104834, Final residual = 4.64274e-06, No Iterations 2
GAMG:  Solving for p, Initial residual = 0.0519849, Final residual = 0.00361091, No Iterations 1
GAMG:  Solving for p, Initial residual = 0.0150044, Final residual = 0.00136404, No Iterations 1
GAMG:  Solving for p, Initial residual = 0.00636726, Final residual = 0.000226013, No Iterations 2
GAMG:  Solving for p, Initial residual = 0.00398653, Final residual = 0.000292002, No Iterations 1
GAMG:  Solving for p, Initial residual = 0.0019255, Final residual = 7.42184e-05, No Iterations 2
time step continuity errors : sum local = 0.0492946, global = 0.00292553, cumulative = -4.66372
ExecutionTime = 3.84 s  ClockTime = 4 s

Time = 45

smoothSolver:  Solving for Ux, Initial residual = 0.00865831, Final residual = 4.11026e-06, No Iterations 2
smoothSolver:  Solving for Uy, Initial residual = 0.00857452, Final residual = 4.01997e-06, No Iterations 2
smoothSolver:  Solving for Uz, Initial residual = 0.0102909, Final residual = 4.53202e-06, No Iterations 2
GAMG:  Solving for p, Initial residual = 0.0515844, Final residual = 0.00352033, No Iterations 1
GAMG:  Solving for p, Initial residual = 0.0152838, Final residual = 0.00135289, No Iterations 1
GAMG:  Solving for p, Initial residual = 0.00741194, Final residual = 0.000325474, No Iterations 2
GAMG:  Solving for p, Initial residual = 0.00604796, Final residual = 0.000412872, No Iterations 1
GAMG:  Solving for p, Initial residual = 0.00261639, Final residual = 0.000123934, No Iterations 2
time step continuity errors : sum local = 0.0680376, global = 0.0147938, cumulative = -4.64892
ExecutionTime = 3.92 s  ClockTime = 4 s

Time = 46

smoothSolver:  Solving for Ux, Initial residual = 0.00851047, Final residual = 3.98573e-06, No Iterations 2
smoothSolver:  Solving for Uy, Initial residual = 0.00842002, Final residual = 3.91599e-06, No Iterations 2
smoothSolver:  Solving for Uz, Initial residual = 0.00999776, Final residual = 4.38913e-06, No Iterations 2
GAMG:  Solving for p, Initial residual = 0.0534705, Final residual = 0.00359693, No Iterations 1
GAMG:  Solving for p, Initial residual = 0.0162198, Final residual = 0.00153946, No Iterations 1
GAMG:  Solving for p, Initial residual = 0.00941768, Final residual = 0.000416339, No Iterations 2
GAMG:  Solving for p, Initial residual = 0.00834417, Final residual = 0.000571589, No Iterations 1
GAMG:  Solving for p, Initial residual = 0.00354808, Final residual = 0.000171689, No Iterations 2
time step continuity errors : sum local = 0.0767685, global = 0.0152922, cumulative = -4.63363
ExecutionTime = 3.99 s  ClockTime = 4 s

Time = 47

smoothSolver:  Solving for Ux, Initial residual = 0.00838181, Final residual = 3.89981e-06, No Iterations 2
smoothSolver:  Solving for Uy, Initial residual = 0.00829569, Final residual = 3.87549e-06, No Iterations 2
smoothSolver:  Solving for Uz, Initial residual = 0.00970586, Final residual = 4.33107e-06, No Iterations 2
GAMG:  Solving for p, Initial residual = 0.0566828, Final residual = 0.00377084, No Iterations 1
GAMG:  Solving for p, Initial residual = 0.0172076, Final residual = 0.00167408, No Iterations 1
GAMG:  Solving for p, Initial residual = 0.0104347, Final residual = 0.000469066, No Iterations 2
GAMG:  Solving for p, Initial residual = 0.00964024, Final residual = 0.000671846, No Iterations 1
GAMG:  Solving for p, Initial residual = 0.0041355, Final residual = 0.000203819, No Iterations 2
time step continuity errors : sum local = 0.0798563, global = 0.0153117, cumulative = -4.61832
ExecutionTime = 4.08 s  ClockTime = 4 s

Time = 48

smoothSolver:  Solving for Ux, Initial residual = 0.00828327, Final residual = 3.81403e-06, No Iterations 2
smoothSolver:  Solving for Uy, Initial residual = 0.0081974, Final residual = 3.82853e-06, No Iterations 2
smoothSolver:  Solving for Uz, Initial residual = 0.00948494, Final residual = 4.25202e-06, No Iterations 2
GAMG:  Solving for p, Initial residual = 0.0611018, Final residual = 0.00401841, No Iterations 1
GAMG:  Solving for p, Initial residual = 0.0180046, Final residual = 0.00168887, No Iterations 1
GAMG:  Solving for p, Initial residual = 0.00992722, Final residual = 0.000455992, No Iterations 2
GAMG:  Solving for p, Initial residual = 0.00919833, Final residual = 0.00065526, No Iterations 1
GAMG:  Solving for p, Initial residual = 0.00402001, Final residual = 0.000202253, No Iterations 2
time step continuity errors : sum local = 0.0775018, global = 0.0146066, cumulative = -4.60371
ExecutionTime = 4.16 s  ClockTime = 4 s

Time = 49

smoothSolver:  Solving for Ux, Initial residual = 0.00817462, Final residual = 3.7505e-06, No Iterations 2
smoothSolver:  Solving for Uy, Initial residual = 0.00809925, Final residual = 3.78796e-06, No Iterations 2
smoothSolver:  Solving for Uz, Initial residual = 0.00933846, Final residual = 4.21087e-06, No Iterations 2
GAMG:  Solving for p, Initial residual = 0.0650642, Final residual = 0.00424512, No Iterations 1
GAMG:  Solving for p, Initial residual = 0.0184766, Final residual = 0.00166224, No Iterations 1
GAMG:  Solving for p, Initial residual = 0.00853947, Final residual = 0.000387529, No Iterations 2
GAMG:  Solving for p, Initial residual = 0.0072887, Final residual = 0.000536408, No Iterations 1
GAMG:  Solving for p, Initial residual = 0.00331133, Final residual = 0.000168707, No Iterations 2
time step continuity errors : sum local = 0.0698504, global = 0.0133128, cumulative = -4.5904
ExecutionTime = 4.24 s  ClockTime = 4 s

Time = 50

smoothSolver:  Solving for Ux, Initial residual = 0.00806934, Final residual = 3.6866e-06, No Iterations 2
smoothSolver:  Solving for Uy, Initial residual = 0.00799775, Final residual = 3.72515e-06, No Iterations 2
smoothSolver:  Solving for Uz, Initial residual = 0.00923526, Final residual = 4.11748e-06, No Iterations 2
GAMG:  Solving for p, Initial residual = 0.0682047, Final residual = 0.00442709, No Iterations 1
GAMG:  Solving for p, Initial residual = 0.0188264, Final residual = 0.00171616, No Iterations 1
GAMG:  Solving for p, Initial residual = 0.00781876, Final residual = 0.000306547, No Iterations 2
GAMG:  Solving for p, Initial residual = 0.00515719, Final residual = 0.000397742, No Iterations 1
GAMG:  Solving for p, Initial residual = 0.00252233, Final residual = 0.000120009, No Iterations 2
time step continuity errors : sum local = 0.0557223, global = 0.0114937, cumulative = -4.57891
ExecutionTime = 4.32 s  ClockTime = 4 s

Time = 51

smoothSolver:  Solving for Ux, Initial residual = 0.00795488, Final residual = 3.63323e-06, No Iterations 2
smoothSolver:  Solving for Uy, Initial residual = 0.00788919, Final residual = 3.66487e-06, No Iterations 2
smoothSolver:  Solving for Uz, Initial residual = 0.00914403, Final residual = 4.02034e-06, No Iterations 2
GAMG:  Solving for p, Initial residual = 0.0690153, Final residual = 0.00444804, No Iterations 1
GAMG:  Solving for p, Initial residual = 0.0187137, Final residual = 0.00167596, No Iterations 1
GAMG:  Solving for p, Initial residual = 0.00758679, Final residual = 0.000284961, No Iterations 2
GAMG:  Solving for p, Initial residual = 0.00440293, Final residual = 0.000339053, No Iterations 1
GAMG:  Solving for p, Initial residual = 0.00218893, Final residual = 8.55608e-05, No Iterations 2
time step continuity errors : sum local = 0.0431399, global = -0.0121357, cumulative = -4.59104
ExecutionTime = 4.39 s  ClockTime = 4 s

Time = 52

smoothSolver:  Solving for Ux, Initial residual = 0.00783516, Final residual = 3.57085e-06, No Iterations 2
smoothSolver:  Solving for Uy, Initial residual = 0.00777794, Final residual = 3.58565e-06, No Iterations 2
smoothSolver:  Solving for Uz, Initial residual = 0.00905598, Final residual = 3.92215e-06, No Iterations 2
GAMG:  Solving for p, Initial residual = 0.0677503, Final residual = 0.00432573, No Iterations 1
GAMG:  Solving for p, Initial residual = 0.0181344, Final residual = 0.00158006, No Iterations 1
GAMG:  Solving for p, Initial residual = 0.00728892, Final residual = 0.000326982, No Iterations 2
GAMG:  Solving for p, Initial residual = 0.00472856, Final residual = 0.000328558, No Iterations 1
GAMG:  Solving for p, Initial residual = 0.0021198, Final residual = 0.000101208, No Iterations 2
time step continuity errors : sum local = 0.0562775, global = -0.0110205, cumulative = -4.60206
ExecutionTime = 4.47 s  ClockTime = 4 s

Time = 53

smoothSolver:  Solving for Ux, Initial residual = 0.00771148, Final residual = 3.50564e-06, No Iterations 2
smoothSolver:  Solving for Uy, Initial residual = 0.00765834, Final residual = 3.52903e-06, No Iterations 2
smoothSolver:  Solving for Uz, Initial residual = 0.0089698, Final residual = 3.89431e-06, No Iterations 2
GAMG:  Solving for p, Initial residual = 0.0650797, Final residual = 0.00411608, No Iterations 1
GAMG:  Solving for p, Initial residual = 0.017327, Final residual = 0.00149105, No Iterations 1
GAMG:  Solving for p, Initial residual = 0.006988, Final residual = 0.00034544, No Iterations 2
GAMG:  Solving for p, Initial residual = 0.00486197, Final residual = 0.000335153, No Iterations 1
GAMG:  Solving for p, Initial residual = 0.00209211, Final residual = 0.000104925, No Iterations 2
time step continuity errors : sum local = 0.0628452, global = -0.0111131, cumulative = -4.61317
ExecutionTime = 4.56 s  ClockTime = 4 s

Time = 54

smoothSolver:  Solving for Ux, Initial residual = 0.00758791, Final residual = 3.45395e-06, No Iterations 2
smoothSolver:  Solving for Uy, Initial residual = 0.00753996, Final residual = 3.47576e-06, No Iterations 2
smoothSolver:  Solving for Uz, Initial residual = 0.00889464, Final residual = 3.84894e-06, No Iterations 2
GAMG:  Solving for p, Initial residual = 0.0617672, Final residual = 0.00387517, No Iterations 1
GAMG:  Solving for p, Initial residual = 0.016531, Final residual = 0.00140207, No Iterations 1
GAMG:  Solving for p, Initial residual = 0.00666379, Final residual = 0.000337278, No Iterations 2
GAMG:  Solving for p, Initial residual = 0.00473891, Final residual = 0.000328475, No Iterations 1
GAMG:  Solving for p, Initial residual = 0.00203571, Final residual = 0.000103475, No Iterations 2
time step continuity errors : sum local = 0.0644962, global = -0.0109473, cumulative = -4.62412
ExecutionTime = 4.63 s  ClockTime = 4 s

Time = 55

smoothSolver:  Solving for Ux, Initial residual = 0.00747335, Final residual = 3.40326e-06, No Iterations 2
smoothSolver:  Solving for Uy, Initial residual = 0.00741721, Final residual = 3.41724e-06, No Iterations 2
smoothSolver:  Solving for Uz, Initial residual = 0.00881634, Final residual = 3.79615e-06, No Iterations 2
GAMG:  Solving for p, Initial residual = 0.058739, Final residual = 0.00364142, No Iterations 1
GAMG:  Solving for p, Initial residual = 0.0158322, Final residual = 0.00131284, No Iterations 1
GAMG:  Solving for p, Initial residual = 0.00630779, Final residual = 0.000311149, No Iterations 2
GAMG:  Solving for p, Initial residual = 0.00440056, Final residual = 0.000309321, No Iterations 1
GAMG:  Solving for p, Initial residual = 0.00193359, Final residual = 9.90671e-05, No Iterations 2
time step continuity errors : sum local = 0.0623442, global = -0.0103878, cumulative = -4.63451
ExecutionTime = 4.72 s  ClockTime = 5 s

Time = 56

smoothSolver:  Solving for Ux, Initial residual = 0.00737148, Final residual = 3.33802e-06, No Iterations 2
smoothSolver:  Solving for Uy, Initial residual = 0.00729374, Final residual = 3.37802e-06, No Iterations 2
smoothSolver:  Solving for Uz, Initial residual = 0.00874678, Final residual = 3.75851e-06, No Iterations 2
GAMG:  Solving for p, Initial residual = 0.056376, Final residual = 0.00345614, No Iterations 1
GAMG:  Solving for p, Initial residual = 0.0153376, Final residual = 0.00125736, No Iterations 1
GAMG:  Solving for p, Initial residual = 0.00606961, Final residual = 0.000606214, No Iterations 1
GAMG:  Solving for p, Initial residual = 0.00326482, Final residual = 0.000174435, No Iterations 2
GAMG:  Solving for p, Initial residual = 0.00262535, Final residual = 0.000191773, No Iterations 1
time step continuity errors : sum local = 0.119821, global = -0.022787, cumulative = -4.6573
ExecutionTime = 4.79 s  ClockTime = 5 s

Time = 57

smoothSolver:  Solving for Ux, Initial residual = 0.00727053, Final residual = 3.29303e-06, No Iterations 2
smoothSolver:  Solving for Uy, Initial residual = 0.00717134, Final residual = 3.30902e-06, No Iterations 2
smoothSolver:  Solving for Uz, Initial residual = 0.00866045, Final residual = 3.74872e-06, No Iterations 2
GAMG:  Solving for p, Initial residual = 0.0549585, Final residual = 0.00335273, No Iterations 1
GAMG:  Solving for p, Initial residual = 0.0150409, Final residual = 0.00122527, No Iterations 1
GAMG:  Solving for p, Initial residual = 0.00597612, Final residual = 0.000586157, No Iterations 1
GAMG:  Solving for p, Initial residual = 0.00309575, Final residual = 0.000144686, No Iterations 2
GAMG:  Solving for p, Initial residual = 0.00227417, Final residual = 0.000169846, No Iterations 1
time step continuity errors : sum local = 0.102994, global = -0.0154597, cumulative = -4.67276
ExecutionTime = 4.87 s  ClockTime = 5 s

Time = 58

smoothSolver:  Solving for Ux, Initial residual = 0.00717178, Final residual = 3.2251e-06, No Iterations 2
smoothSolver:  Solving for Uy, Initial residual = 0.00705362, Final residual = 3.23637e-06, No Iterations 2
smoothSolver:  Solving for Uz, Initial residual = 0.00857697, Final residual = 3.74263e-06, No Iterations 2
GAMG:  Solving for p, Initial residual = 0.0540333, Final residual = 0.00330072, No Iterations 1
GAMG:  Solving for p, Initial residual = 0.0149142, Final residual = 0.00121039, No Iterations 1
GAMG:  Solving for p, Initial residual = 0.00596534, Final residual = 0.000585805, No Iterations 1
GAMG:  Solving for p, Initial residual = 0.00306711, Final residual = 0.00012194, No Iterations 2
GAMG:  Solving for p, Initial residual = 0.00204361, Final residual = 0.000158961, No Iterations 1
time step continuity errors : sum local = 0.0936503, global = -0.00177792, cumulative = -4.67453
ExecutionTime = 4.95 s  ClockTime = 5 s

Time = 59

smoothSolver:  Solving for Ux, Initial residual = 0.00707577, Final residual = 3.17835e-06, No Iterations 2
smoothSolver:  Solving for Uy, Initial residual = 0.00694289, Final residual = 3.17589e-06, No Iterations 2
smoothSolver:  Solving for Uz, Initial residual = 0.00849269, Final residual = 3.72392e-06, No Iterations 2
GAMG:  Solving for p, Initial residual = 0.0533742, Final residual = 0.00325406, No Iterations 1
GAMG:  Solving for p, Initial residual = 0.0147975, Final residual = 0.00121312, No Iterations 1
GAMG:  Solving for p, Initial residual = 0.00595806, Final residual = 0.000207565, No Iterations 2
GAMG:  Solving for p, Initial residual = 0.00346376, Final residual = 0.000262541, No Iterations 1
GAMG:  Solving for p, Initial residual = 0.00173415, Final residual = 7.26825e-05, No Iterations 2
time step continuity errors : sum local = 0.0420474, global = 0.00955414, cumulative = -4.66498
ExecutionTime = 5.03 s  ClockTime = 5 s

Time = 60

smoothSolver:  Solving for Ux, Initial residual = 0.00697874, Final residual = 3.14149e-06, No Iterations 2
smoothSolver:  Solving for Uy, Initial residual = 0.00683514, Final residual = 3.12373e-06, No Iterations 2
smoothSolver:  Solving for Uz, Initial residual = 0.00839846, Final residual = 3.6776e-06, No Iterations 2
GAMG:  Solving for p, Initial residual = 0.0530178, Final residual = 0.00323041, No Iterations 1
GAMG:  Solving for p, Initial residual = 0.0147894, Final residual = 0.00121703, No Iterations 1
GAMG:  Solving for p, Initial residual = 0.00600986, Final residual = 0.000220597, No Iterations 2
GAMG:  Solving for p, Initial residual = 0.00370374, Final residual = 0.00027628, No Iterations 1
GAMG:  Solving for p, Initial residual = 0.00180863, Final residual = 7.97661e-05, No Iterations 2
time step continuity errors : sum local = 0.0451852, global = 0.0112248, cumulative = -4.65376
ExecutionTime = 5.1 s  ClockTime = 5 s

Time = 61

smoothSolver:  Solving for Ux, Initial residual = 0.00688338, Final residual = 3.10802e-06, No Iterations 2
smoothSolver:  Solving for Uy, Initial residual = 0.00673206, Final residual = 3.08985e-06, No Iterations 2
smoothSolver:  Solving for Uz, Initial residual = 0.00830998, Final residual = 3.64791e-06, No Iterations 2
GAMG:  Solving for p, Initial residual = 0.0533273, Final residual = 0.00325267, No Iterations 1
GAMG:  Solving for p, Initial residual = 0.0149264, Final residual = 0.00123726, No Iterations 1
GAMG:  Solving for p, Initial residual = 0.00611558, Final residual = 0.000230687, No Iterations 2
GAMG:  Solving for p, Initial residual = 0.00386786, Final residual = 0.000288174, No Iterations 1
GAMG:  Solving for p, Initial residual = 0.00187512, Final residual = 8.52258e-05, No Iterations 2
time step continuity errors : sum local = 0.0474742, global = 0.0111652, cumulative = -4.64259
ExecutionTime = 5.19 s  ClockTime = 5 s

Time = 62

smoothSolver:  Solving for Ux, Initial residual = 0.00679645, Final residual = 3.06001e-06, No Iterations 2
smoothSolver:  Solving for Uy, Initial residual = 0.00663851, Final residual = 3.0436e-06, No Iterations 2
smoothSolver:  Solving for Uz, Initial residual = 0.00822422, Final residual = 3.59594e-06, No Iterations 2
GAMG:  Solving for p, Initial residual = 0.0537492, Final residual = 0.00327549, No Iterations 1
GAMG:  Solving for p, Initial residual = 0.0150924, Final residual = 0.00124944, No Iterations 1
GAMG:  Solving for p, Initial residual = 0.00616445, Final residual = 0.000229558, No Iterations 2
GAMG:  Solving for p, Initial residual = 0.00385087, Final residual = 0.00028896, No Iterations 1
GAMG:  Solving for p, Initial residual = 0.00187327, Final residual = 8.49876e-05, No Iterations 2
time step continuity errors : sum local = 0.0471616, global = 0.0109314, cumulative = -4.63166
ExecutionTime = 5.27 s  ClockTime = 5 s

Time = 63

smoothSolver:  Solving for Ux, Initial residual = 0.00670952, Final residual = 3.02312e-06, No Iterations 2
smoothSolver:  Solving for Uy, Initial residual = 0.0065525, Final residual = 2.97989e-06, No Iterations 2
smoothSolver:  Solving for Uz, Initial residual = 0.00813529, Final residual = 3.57178e-06, No Iterations 2
GAMG:  Solving for p, Initial residual = 0.0539636, Final residual = 0.00328752, No Iterations 1
GAMG:  Solving for p, Initial residual = 0.0151613, Final residual = 0.00125173, No Iterations 1
GAMG:  Solving for p, Initial residual = 0.00615798, Final residual = 0.000220504, No Iterations 2
GAMG:  Solving for p, Initial residual = 0.00371251, Final residual = 0.000280054, No Iterations 1
GAMG:  Solving for p, Initial residual = 0.00182539, Final residual = 7.98694e-05, No Iterations 2
time step continuity errors : sum local = 0.0445635, global = 0.0102011, cumulative = -4.62146
ExecutionTime = 5.34 s  ClockTime = 5 s

Time = 64

smoothSolver:  Solving for Ux, Initial residual = 0.00662237, Final residual = 2.96973e-06, No Iterations 2
smoothSolver:  Solving for Uy, Initial residual = 0.00646967, Final residual = 2.92658e-06, No Iterations 2
smoothSolver:  Solving for Uz, Initial residual = 0.00806631, Final residual = 3.5772e-06, No Iterations 2
GAMG:  Solving for p, Initial residual = 0.0536584, Final residual = 0.00327477, No Iterations 1
GAMG:  Solving for p, Initial residual = 0.0150327, Final residual = 0.00123342, No Iterations 1
GAMG:  Solving for p, Initial residual = 0.00607344, Final residual = 0.000209946, No Iterations 2
GAMG:  Solving for p, Initial residual = 0.0035085, Final residual = 0.000267162, No Iterations 1
GAMG:  Solving for p, Initial residual = 0.00174952, Final residual = 7.09391e-05, No Iterations 2
time step continuity errors : sum local = 0.0401339, global = 0.00894387, cumulative = -4.61251
ExecutionTime = 5.43 s  ClockTime = 5 s

Time = 65

smoothSolver:  Solving for Ux, Initial residual = 0.00654377, Final residual = 2.92119e-06, No Iterations 2
smoothSolver:  Solving for Uy, Initial residual = 0.00640002, Final residual = 2.87975e-06, No Iterations 2
smoothSolver:  Solving for Uz, Initial residual = 0.00799656, Final residual = 3.55763e-06, No Iterations 2
GAMG:  Solving for p, Initial residual = 0.0534859, Final residual = 0.00328018, No Iterations 1
GAMG:  Solving for p, Initial residual = 0.0149387, Final residual = 0.00121829, No Iterations 1
GAMG:  Solving for p, Initial residual = 0.0060176, Final residual = 0.000203136, No Iterations 2
GAMG:  Solving for p, Initial residual = 0.00337875, Final residual = 0.000253783, No Iterations 1
GAMG:  Solving for p, Initial residual = 0.00169506, Final residual = 6.26651e-05, No Iterations 2
time step continuity errors : sum local = 0.0357788, global = 0.0042593, cumulative = -4.60825
ExecutionTime = 5.51 s  ClockTime = 5 s

Time = 66

smoothSolver:  Solving for Ux, Initial residual = 0.00645959, Final residual = 2.86341e-06, No Iterations 2
smoothSolver:  Solving for Uy, Initial residual = 0.00632799, Final residual = 2.83591e-06, No Iterations 2
smoothSolver:  Solving for Uz, Initial residual = 0.00791537, Final residual = 3.48594e-06, No Iterations 2
GAMG:  Solving for p, Initial residual = 0.0531496, Final residual = 0.00326929, No Iterations 1
GAMG:  Solving for p, Initial residual = 0.0148498, Final residual = 0.00120813, No Iterations 1
GAMG:  Solving for p, Initial residual = 0.00598812, Final residual = 0.000596153, No Iterations 1
GAMG:  Solving for p, Initial residual = 0.00308953, Final residual = 0.000121252, No Iterations 2
GAMG:  Solving for p, Initial residual = 0.0019824, Final residual = 0.000153378, No Iterations 1
time step continuity errors : sum local = 0.0882131, global = -0.00548436, cumulative = -4.61374
ExecutionTime = 5.59 s  ClockTime = 5 s

Time = 67

smoothSolver:  Solving for Ux, Initial residual = 0.00636716, Final residual = 2.82061e-06, No Iterations 2
smoothSolver:  Solving for Uy, Initial residual = 0.00625397, Final residual = 2.81159e-06, No Iterations 2
smoothSolver:  Solving for Uz, Initial residual = 0.00782396, Final residual = 3.42234e-06, No Iterations 2
GAMG:  Solving for p, Initial residual = 0.052517, Final residual = 0.00323818, No Iterations 1
GAMG:  Solving for p, Initial residual = 0.0147261, Final residual = 0.00120232, No Iterations 1
GAMG:  Solving for p, Initial residual = 0.00593236, Final residual = 0.000590244, No Iterations 1
GAMG:  Solving for p, Initial residual = 0.00305452, Final residual = 0.000118692, No Iterations 2
GAMG:  Solving for p, Initial residual = 0.00199058, Final residual = 0.000149592, No Iterations 1
time step continuity errors : sum local = 0.0872474, global = -0.0118917, cumulative = -4.62563
ExecutionTime = 5.66 s  ClockTime = 5 s

Time = 68

smoothSolver:  Solving for Ux, Initial residual = 0.00627421, Final residual = 2.77047e-06, No Iterations 2
smoothSolver:  Solving for Uy, Initial residual = 0.00617245, Final residual = 2.7814e-06, No Iterations 2
smoothSolver:  Solving for Uz, Initial residual = 0.00772619, Final residual = 3.38068e-06, No Iterations 2
GAMG:  Solving for p, Initial residual = 0.0518974, Final residual = 0.00320554, No Iterations 1
GAMG:  Solving for p, Initial residual = 0.0145582, Final residual = 0.00119923, No Iterations 1
GAMG:  Solving for p, Initial residual = 0.00586378, Final residual = 0.000195118, No Iterations 2
GAMG:  Solving for p, Initial residual = 0.00329735, Final residual = 0.000238903, No Iterations 1
GAMG:  Solving for p, Initial residual = 0.00163063, Final residual = 6.43718e-05, No Iterations 2
time step continuity errors : sum local = 0.0378745, global = -0.00868864, cumulative = -4.63432
ExecutionTime = 5.74 s  ClockTime = 6 s

Time = 69

smoothSolver:  Solving for Ux, Initial residual = 0.00618798, Final residual = 2.74788e-06, No Iterations 2
smoothSolver:  Solving for Uy, Initial residual = 0.00609221, Final residual = 2.76017e-06, No Iterations 2
smoothSolver:  Solving for Uz, Initial residual = 0.0076349, Final residual = 3.35903e-06, No Iterations 2
GAMG:  Solving for p, Initial residual = 0.051073, Final residual = 0.00313753, No Iterations 1
GAMG:  Solving for p, Initial residual = 0.0142385, Final residual = 0.00117998, No Iterations 1
GAMG:  Solving for p, Initial residual = 0.00574186, Final residual = 0.000193407, No Iterations 2
GAMG:  Solving for p, Initial residual = 0.00323663, Final residual = 0.000236735, No Iterations 1
GAMG:  Solving for p, Initial residual = 0.00159978, Final residual = 6.56685e-05, No Iterations 2
time step continuity errors : sum local = 0.0390469, global = -0.00843885, cumulative = -4.64276
ExecutionTime = 5.83 s  ClockTime = 6 s

Time = 70

smoothSolver:  Solving for Ux, Initial residual = 0.0061101, Final residual = 2.70765e-06, No Iterations 2
smoothSolver:  Solving for Uy, Initial residual = 0.00601774, Final residual = 2.73071e-06, No Iterations 2
smoothSolver:  Solving for Uz, Initial residual = 0.00754627, Final residual = 3.29985e-06, No Iterations 2
GAMG:  Solving for p, Initial residual = 0.0502956, Final residual = 0.00307257, No Iterations 1
GAMG:  Solving for p, Initial residual = 0.0139348, Final residual = 0.00115364, No Iterations 1
GAMG:  Solving for p, Initial residual = 0.00561569, Final residual = 0.00018535, No Iterations 2
GAMG:  Solving for p, Initial residual = 0.00313758, Final residual = 0.000230086, No Iterations 1
GAMG:  Solving for p, Initial residual = 0.00155681, Final residual = 6.2535e-05, No Iterations 2
time step continuity errors : sum local = 0.037381, global = -0.00807677, cumulative = -4.65083
ExecutionTime = 5.91 s  ClockTime = 6 s

Time = 71

smoothSolver:  Solving for Ux, Initial residual = 0.0060301, Final residual = 2.68493e-06, No Iterations 2
smoothSolver:  Solving for Uy, Initial residual = 0.0059442, Final residual = 2.71105e-06, No Iterations 2
smoothSolver:  Solving for Uz, Initial residual = 0.00745711, Final residual = 3.23989e-06, No Iterations 2
GAMG:  Solving for p, Initial residual = 0.0495457, Final residual = 0.00300684, No Iterations 1
GAMG:  Solving for p, Initial residual = 0.0136677, Final residual = 0.00111968, No Iterations 1
GAMG:  Solving for p, Initial residual = 0.00548797, Final residual = 0.000542965, No Iterations 1
GAMG:  Solving for p, Initial residual = 0.00278715, Final residual = 0.000107543, No Iterations 2
GAMG:  Solving for p, Initial residual = 0.00180922, Final residual = 0.000139817, No Iterations 1
time step continuity errors : sum local = 0.0840234, global = -0.0111321, cumulative = -4.66197
ExecutionTime = 5.98 s  ClockTime = 6 s

Time = 72

smoothSolver:  Solving for Ux, Initial residual = 0.0059573, Final residual = 2.64739e-06, No Iterations 2
smoothSolver:  Solving for Uy, Initial residual = 0.00588077, Final residual = 2.70141e-06, No Iterations 2
smoothSolver:  Solving for Uz, Initial residual = 0.00737088, Final residual = 3.13709e-06, No Iterations 2
GAMG:  Solving for p, Initial residual = 0.0489986, Final residual = 0.0029731, No Iterations 1
GAMG:  Solving for p, Initial residual = 0.0135175, Final residual = 0.0010968, No Iterations 1
GAMG:  Solving for p, Initial residual = 0.0054249, Final residual = 0.000529181, No Iterations 1
GAMG:  Solving for p, Initial residual = 0.00275073, Final residual = 0.000101605, No Iterations 2
GAMG:  Solving for p, Initial residual = 0.00174044, Final residual = 0.000133933, No Iterations 1
time step continuity errors : sum local = 0.0805569, global = -0.00813566, cumulative = -4.6701
ExecutionTime = 6.06 s  ClockTime = 6 s

Time = 73

smoothSolver:  Solving for Ux, Initial residual = 0.0058849, Final residual = 2.6361e-06, No Iterations 2
smoothSolver:  Solving for Uy, Initial residual = 0.00582261, Final residual = 2.71513e-06, No Iterations 2
smoothSolver:  Solving for Uz, Initial residual = 0.00728721, Final residual = 3.08328e-06, No Iterations 2
GAMG:  Solving for p, Initial residual = 0.0483976, Final residual = 0.00294606, No Iterations 1
GAMG:  Solving for p, Initial residual = 0.0134156, Final residual = 0.00108315, No Iterations 1
GAMG:  Solving for p, Initial residual = 0.00538976, Final residual = 0.000522618, No Iterations 1
GAMG:  Solving for p, Initial residual = 0.00274126, Final residual = 0.000100251, No Iterations 2
GAMG:  Solving for p, Initial residual = 0.00171653, Final residual = 0.000131489, No Iterations 1
time step continuity errors : sum local = 0.0791644, global = -0.00264463, cumulative = -4.67275
ExecutionTime = 6.14 s  ClockTime = 6 s

Time = 74

smoothSolver:  Solving for Ux, Initial residual = 0.0058165, Final residual = 2.61559e-06, No Iterations 2
smoothSolver:  Solving for Uy, Initial residual = 0.00576096, Final residual = 2.69307e-06, No Iterations 2
smoothSolver:  Solving for Uz, Initial residual = 0.00720725, Final residual = 3.07458e-06, No Iterations 2
GAMG:  Solving for p, Initial residual = 0.0478284, Final residual = 0.00292032, No Iterations 1
GAMG:  Solving for p, Initial residual = 0.0133078, Final residual = 0.00107237, No Iterations 1
GAMG:  Solving for p, Initial residual = 0.00534875, Final residual = 0.000520819, No Iterations 1
GAMG:  Solving for p, Initial residual = 0.00273494, Final residual = 9.99882e-05, No Iterations 2
GAMG:  Solving for p, Initial residual = 0.00172462, Final residual = 0.000132506, No Iterations 1
time step continuity errors : sum local = 0.0799125, global = 0.00375683, cumulative = -4.66899
ExecutionTime = 6.22 s  ClockTime = 6 s

Time = 75

smoothSolver:  Solving for Ux, Initial residual = 0.00575333, Final residual = 2.60728e-06, No Iterations 2
smoothSolver:  Solving for Uy, Initial residual = 0.00569582, Final residual = 2.6748e-06, No Iterations 2
smoothSolver:  Solving for Uz, Initial residual = 0.00712774, Final residual = 3.07714e-06, No Iterations 2
GAMG:  Solving for p, Initial residual = 0.0473479, Final residual = 0.00289848, No Iterations 1
GAMG:  Solving for p, Initial residual = 0.0131183, Final residual = 0.00105967, No Iterations 1
GAMG:  Solving for p, Initial residual = 0.00526783, Final residual = 0.000515248, No Iterations 1
GAMG:  Solving for p, Initial residual = 0.00267794, Final residual = 9.72072e-05, No Iterations 2
GAMG:  Solving for p, Initial residual = 0.00170585, Final residual = 0.000130302, No Iterations 1
time step continuity errors : sum local = 0.0784043, global = 0.00889998, cumulative = -4.66009
ExecutionTime = 6.29 s  ClockTime = 6 s

Time = 76

smoothSolver:  Solving for Ux, Initial residual = 0.00569183, Final residual = 2.57759e-06, No Iterations 2
smoothSolver:  Solving for Uy, Initial residual = 0.00562819, Final residual = 2.63533e-06, No Iterations 2
smoothSolver:  Solving for Uz, Initial residual = 0.00704836, Final residual = 3.037e-06, No Iterations 2
GAMG:  Solving for p, Initial residual = 0.0468209, Final residual = 0.00286653, No Iterations 1
GAMG:  Solving for p, Initial residual = 0.0129445, Final residual = 0.00104485, No Iterations 1
GAMG:  Solving for p, Initial residual = 0.00519817, Final residual = 0.000509888, No Iterations 1
GAMG:  Solving for p, Initial residual = 0.00264201, Final residual = 9.71035e-05, No Iterations 2
GAMG:  Solving for p, Initial residual = 0.00170388, Final residual = 0.000130117, No Iterations 1
time step continuity errors : sum local = 0.0784371, global = 0.0115572, cumulative = -4.64853
ExecutionTime = 6.37 s  ClockTime = 6 s

Time = 77

smoothSolver:  Solving for Ux, Initial residual = 0.00562904, Final residual = 2.546e-06, No Iterations 2
smoothSolver:  Solving for Uy, Initial residual = 0.00556043, Final residual = 2.60717e-06, No Iterations 2
smoothSolver:  Solving for Uz, Initial residual = 0.00696849, Final residual = 2.99746e-06, No Iterations 2
GAMG:  Solving for p, Initial residual = 0.0463308, Final residual = 0.00281803, No Iterations 1
GAMG:  Solving for p, Initial residual = 0.0127986, Final residual = 0.00103001, No Iterations 1
GAMG:  Solving for p, Initial residual = 0.00514467, Final residual = 0.000506051, No Iterations 1
GAMG:  Solving for p, Initial residual = 0.00263063, Final residual = 9.87907e-05, No Iterations 2
GAMG:  Solving for p, Initial residual = 0.00171179, Final residual = 0.000132277, No Iterations 1
time step continuity errors : sum local = 0.0799327, global = 0.0128639, cumulative = -4.63567
ExecutionTime = 6.45 s  ClockTime = 6 s

Time = 78

smoothSolver:  Solving for Ux, Initial residual = 0.00556586, Final residual = 2.51125e-06, No Iterations 2
smoothSolver:  Solving for Uy, Initial residual = 0.00549516, Final residual = 2.56199e-06, No Iterations 2
smoothSolver:  Solving for Uz, Initial residual = 0.00687882, Final residual = 2.94961e-06, No Iterations 2
GAMG:  Solving for p, Initial residual = 0.0462204, Final residual = 0.00278643, No Iterations 1
GAMG:  Solving for p, Initial residual = 0.0127216, Final residual = 0.00102642, No Iterations 1
GAMG:  Solving for p, Initial residual = 0.00512984, Final residual = 0.000506353, No Iterations 1
GAMG:  Solving for p, Initial residual = 0.00264148, Final residual = 0.000101356, No Iterations 2
GAMG:  Solving for p, Initial residual = 0.00172628, Final residual = 0.000135186, No Iterations 1
time step continuity errors : sum local = 0.0817112, global = 0.0129388, cumulative = -4.62273
ExecutionTime = 6.52 s  ClockTime = 6 s

Time = 79

smoothSolver:  Solving for Ux, Initial residual = 0.00550009, Final residual = 2.47063e-06, No Iterations 2
smoothSolver:  Solving for Uy, Initial residual = 0.00544418, Final residual = 2.54456e-06, No Iterations 2
smoothSolver:  Solving for Uz, Initial residual = 0.00679676, Final residual = 2.95092e-06, No Iterations 2
GAMG:  Solving for p, Initial residual = 0.0460922, Final residual = 0.0027597, No Iterations 1
GAMG:  Solving for p, Initial residual = 0.0126448, Final residual = 0.00102346, No Iterations 1
GAMG:  Solving for p, Initial residual = 0.00510552, Final residual = 0.000504131, No Iterations 1
GAMG:  Solving for p, Initial residual = 0.00263622, Final residual = 0.000101462, No Iterations 2
GAMG:  Solving for p, Initial residual = 0.00171702, Final residual = 0.000134999, No Iterations 1
time step continuity errors : sum local = 0.0819112, global = 0.0114461, cumulative = -4.61128
ExecutionTime = 6.6 s  ClockTime = 6 s

Time = 80

smoothSolver:  Solving for Ux, Initial residual = 0.00543732, Final residual = 2.44706e-06, No Iterations 2
smoothSolver:  Solving for Uy, Initial residual = 0.00539895, Final residual = 2.52705e-06, No Iterations 2
smoothSolver:  Solving for Uz, Initial residual = 0.00671509, Final residual = 2.93802e-06, No Iterations 2
GAMG:  Solving for p, Initial residual = 0.0458003, Final residual = 0.00271993, No Iterations 1
GAMG:  Solving for p, Initial residual = 0.0125267, Final residual = 0.00100834, No Iterations 1
GAMG:  Solving for p, Initial residual = 0.00506373, Final residual = 0.0004971, No Iterations 1
GAMG:  Solving for p, Initial residual = 0.00261132, Final residual = 9.94531e-05, No Iterations 2
GAMG:  Solving for p, Initial residual = 0.00169302, Final residual = 0.000132054, No Iterations 1
time step continuity errors : sum local = 0.0807299, global = 0.00865675, cumulative = -4.60263
ExecutionTime = 6.67 s  ClockTime = 6 s

Time = 81

smoothSolver:  Solving for Ux, Initial residual = 0.00537687, Final residual = 2.41937e-06, No Iterations 2
smoothSolver:  Solving for Uy, Initial residual = 0.00534713, Final residual = 2.50172e-06, No Iterations 2
smoothSolver:  Solving for Uz, Initial residual = 0.00662891, Final residual = 2.90913e-06, No Iterations 2
GAMG:  Solving for p, Initial residual = 0.0455462, Final residual = 0.00267449, No Iterations 1
GAMG:  Solving for p, Initial residual = 0.0124404, Final residual = 0.000992847, No Iterations 1
GAMG:  Solving for p, Initial residual = 0.00502086, Final residual = 0.000485954, No Iterations 1
GAMG:  Solving for p, Initial residual = 0.00257258, Final residual = 9.5628e-05, No Iterations 2
GAMG:  Solving for p, Initial residual = 0.00165606, Final residual = 0.000127025, No Iterations 1
time step continuity errors : sum local = 0.0783609, global = 0.00499541, cumulative = -4.59763
ExecutionTime = 6.76 s  ClockTime = 7 s

Time = 82

smoothSolver:  Solving for Ux, Initial residual = 0.00531769, Final residual = 2.39918e-06, No Iterations 2
smoothSolver:  Solving for Uy, Initial residual = 0.00529368, Final residual = 2.48222e-06, No Iterations 2
smoothSolver:  Solving for Uz, Initial residual = 0.00654617, Final residual = 2.85593e-06, No Iterations 2
GAMG:  Solving for p, Initial residual = 0.0452959, Final residual = 0.00262552, No Iterations 1
GAMG:  Solving for p, Initial residual = 0.0123858, Final residual = 0.000977227, No Iterations 1
GAMG:  Solving for p, Initial residual = 0.00498774, Final residual = 0.000475027, No Iterations 1
GAMG:  Solving for p, Initial residual = 0.00254089, Final residual = 9.22485e-05, No Iterations 2
GAMG:  Solving for p, Initial residual = 0.00163266, Final residual = 0.000122394, No Iterations 1
[...]
GAMG:  Solving for p, Initial residual = 0.0408823, Final residual = 0.00256227, No Iterations 1
GAMG:  Solving for p, Initial residual = 0.011558, Final residual = 0.000928336, No Iterations 1
GAMG:  Solving for p, Initial residual = 0.00453786, Final residual = 0.000425702, No Iterations 1
GAMG:  Solving for p, Initial residual = 0.00227054, Final residual = 8.97898e-05, No Iterations 2
GAMG:  Solving for p, Initial residual = 0.00154151, Final residual = 0.000106643, No Iterations 1
time step continuity errors : sum local = 42.9366, global = -6.76605, cumulative = -1123.86
ExecutionTime = 157.23 s  ClockTime = 157 s

Time = 1981

smoothSolver:  Solving for Ux, Initial residual = 0.00412369, Final residual = 2.35725e-06, No Iterations 2
smoothSolver:  Solving for Uy, Initial residual = 0.00444354, Final residual = 2.37224e-06, No Iterations 2
smoothSolver:  Solving for Uz, Initial residual = 0.00303044, Final residual = 1.47507e-06, No Iterations 2
GAMG:  Solving for p, Initial residual = 0.0410939, Final residual = 0.00255749, No Iterations 1
GAMG:  Solving for p, Initial residual = 0.0116261, Final residual = 0.000921932, No Iterations 1
GAMG:  Solving for p, Initial residual = 0.00458668, Final residual = 0.000427502, No Iterations 1
GAMG:  Solving for p, Initial residual = 0.0022681, Final residual = 9.12685e-05, No Iterations 2
GAMG:  Solving for p, Initial residual = 0.00153842, Final residual = 0.000107898, No Iterations 1
time step continuity errors : sum local = 43.5495, global = -6.97678, cumulative = -1130.84
ExecutionTime = 157.32 s  ClockTime = 157 s

Time = 1982

smoothSolver:  Solving for Ux, Initial residual = 0.00410455, Final residual = 2.35622e-06, No Iterations 2
smoothSolver:  Solving for Uy, Initial residual = 0.00443325, Final residual = 2.37093e-06, No Iterations 2
smoothSolver:  Solving for Uz, Initial residual = 0.0030316, Final residual = 1.4756e-06, No Iterations 2
GAMG:  Solving for p, Initial residual = 0.0409106, Final residual = 0.00257584, No Iterations 1
GAMG:  Solving for p, Initial residual = 0.0115897, Final residual = 0.000922622, No Iterations 1
GAMG:  Solving for p, Initial residual = 0.00454714, Final residual = 0.000423984, No Iterations 1
GAMG:  Solving for p, Initial residual = 0.00226477, Final residual = 9.01246e-05, No Iterations 2
GAMG:  Solving for p, Initial residual = 0.00152474, Final residual = 0.000105622, No Iterations 1
time step continuity errors : sum local = 42.9561, global = -7.24107, cumulative = -1138.08
ExecutionTime = 157.39 s  ClockTime = 157 s

Time = 1983

smoothSolver:  Solving for Ux, Initial residual = 0.00408919, Final residual = 2.35641e-06, No Iterations 2
smoothSolver:  Solving for Uy, Initial residual = 0.0044193, Final residual = 2.35598e-06, No Iterations 2
smoothSolver:  Solving for Uz, Initial residual = 0.00303021, Final residual = 1.46971e-06, No Iterations 2
GAMG:  Solving for p, Initial residual = 0.0406756, Final residual = 0.00258584, No Iterations 1
GAMG:  Solving for p, Initial residual = 0.0115182, Final residual = 0.000920965, No Iterations 1
GAMG:  Solving for p, Initial residual = 0.00449797, Final residual = 0.00042424, No Iterations 1
GAMG:  Solving for p, Initial residual = 0.00223485, Final residual = 9.01214e-05, No Iterations 2
GAMG:  Solving for p, Initial residual = 0.00149786, Final residual = 0.000106507, No Iterations 1
time step continuity errors : sum local = 43.7118, global = -7.31028, cumulative = -1145.39
ExecutionTime = 157.46 s  ClockTime = 157 s

Time = 1984

smoothSolver:  Solving for Ux, Initial residual = 0.00407896, Final residual = 2.34895e-06, No Iterations 2
smoothSolver:  Solving for Uy, Initial residual = 0.00440907, Final residual = 2.35078e-06, No Iterations 2
smoothSolver:  Solving for Uz, Initial residual = 0.00303151, Final residual = 1.46963e-06, No Iterations 2
GAMG:  Solving for p, Initial residual = 0.0410784, Final residual = 0.00261894, No Iterations 1
GAMG:  Solving for p, Initial residual = 0.011682, Final residual = 0.00092927, No Iterations 1
GAMG:  Solving for p, Initial residual = 0.00457879, Final residual = 0.000430445, No Iterations 1
GAMG:  Solving for p, Initial residual = 0.00228728, Final residual = 8.98355e-05, No Iterations 2
GAMG:  Solving for p, Initial residual = 0.00153655, Final residual = 0.000107281, No Iterations 1
time step continuity errors : sum local = 43.7982, global = -7.37919, cumulative = -1152.77
ExecutionTime = 157.53 s  ClockTime = 157 s

Time = 1985

smoothSolver:  Solving for Ux, Initial residual = 0.00406955, Final residual = 2.35179e-06, No Iterations 2
smoothSolver:  Solving for Uy, Initial residual = 0.00439581, Final residual = 2.34361e-06, No Iterations 2
smoothSolver:  Solving for Uz, Initial residual = 0.00303232, Final residual = 1.47009e-06, No Iterations 2
GAMG:  Solving for p, Initial residual = 0.0405001, Final residual = 0.00259662, No Iterations 1
GAMG:  Solving for p, Initial residual = 0.0115268, Final residual = 0.000921213, No Iterations 1
GAMG:  Solving for p, Initial residual = 0.00450939, Final residual = 0.000430234, No Iterations 1
GAMG:  Solving for p, Initial residual = 0.00225501, Final residual = 8.86694e-05, No Iterations 2
GAMG:  Solving for p, Initial residual = 0.00150256, Final residual = 0.000107658, No Iterations 1
time step continuity errors : sum local = 44.5415, global = -6.93914, cumulative = -1159.71
ExecutionTime = 157.62 s  ClockTime = 157 s

Time = 1986

smoothSolver:  Solving for Ux, Initial residual = 0.00406112, Final residual = 2.34109e-06, No Iterations 2
smoothSolver:  Solving for Uy, Initial residual = 0.00439128, Final residual = 2.34329e-06, No Iterations 2
smoothSolver:  Solving for Uz, Initial residual = 0.00302934, Final residual = 1.47912e-06, No Iterations 2
GAMG:  Solving for p, Initial residual = 0.0409394, Final residual = 0.00262583, No Iterations 1
GAMG:  Solving for p, Initial residual = 0.0116599, Final residual = 0.000927745, No Iterations 1
GAMG:  Solving for p, Initial residual = 0.00455268, Final residual = 0.000431236, No Iterations 1
GAMG:  Solving for p, Initial residual = 0.00228629, Final residual = 8.78239e-05, No Iterations 2
GAMG:  Solving for p, Initial residual = 0.00151608, Final residual = 0.000107437, No Iterations 1
time step continuity errors : sum local = 43.8577, global = -6.8294, cumulative = -1166.54
ExecutionTime = 157.69 s  ClockTime = 158 s

Time = 1987

smoothSolver:  Solving for Ux, Initial residual = 0.00405384, Final residual = 2.3323e-06, No Iterations 2
smoothSolver:  Solving for Uy, Initial residual = 0.00439025, Final residual = 2.31608e-06, No Iterations 2
smoothSolver:  Solving for Uz, Initial residual = 0.00302851, Final residual = 1.48486e-06, No Iterations 2
GAMG:  Solving for p, Initial residual = 0.0408882, Final residual = 0.00261195, No Iterations 1
GAMG:  Solving for p, Initial residual = 0.0116822, Final residual = 0.000929609, No Iterations 1
GAMG:  Solving for p, Initial residual = 0.00456138, Final residual = 0.000429546, No Iterations 1
GAMG:  Solving for p, Initial residual = 0.00228344, Final residual = 8.56336e-05, No Iterations 2
GAMG:  Solving for p, Initial residual = 0.0015043, Final residual = 0.000106753, No Iterations 1
time step continuity errors : sum local = 43.8704, global = -6.88602, cumulative = -1173.42
ExecutionTime = 157.76 s  ClockTime = 158 s

Time = 1988

smoothSolver:  Solving for Ux, Initial residual = 0.00404881, Final residual = 2.32816e-06, No Iterations 2
smoothSolver:  Solving for Uy, Initial residual = 0.00439573, Final residual = 2.31564e-06, No Iterations 2
smoothSolver:  Solving for Uz, Initial residual = 0.00302588, Final residual = 1.49668e-06, No Iterations 2
GAMG:  Solving for p, Initial residual = 0.0413704, Final residual = 0.00260373, No Iterations 1
GAMG:  Solving for p, Initial residual = 0.0117733, Final residual = 0.0009303, No Iterations 1
GAMG:  Solving for p, Initial residual = 0.00459159, Final residual = 0.000429037, No Iterations 1
GAMG:  Solving for p, Initial residual = 0.00230294, Final residual = 8.35887e-05, No Iterations 2
GAMG:  Solving for p, Initial residual = 0.00150706, Final residual = 0.000105933, No Iterations 1
time step continuity errors : sum local = 43.5425, global = -6.61135, cumulative = -1180.03
ExecutionTime = 157.85 s  ClockTime = 158 s

Time = 1989

smoothSolver:  Solving for Ux, Initial residual = 0.00404975, Final residual = 2.32954e-06, No Iterations 2
smoothSolver:  Solving for Uy, Initial residual = 0.00439821, Final residual = 2.29888e-06, No Iterations 2
smoothSolver:  Solving for Uz, Initial residual = 0.00302326, Final residual = 1.49898e-06, No Iterations 2
GAMG:  Solving for p, Initial residual = 0.0415949, Final residual = 0.00260583, No Iterations 1
GAMG:  Solving for p, Initial residual = 0.0118301, Final residual = 0.00093515, No Iterations 1
GAMG:  Solving for p, Initial residual = 0.00462641, Final residual = 0.000431457, No Iterations 1
GAMG:  Solving for p, Initial residual = 0.00232515, Final residual = 8.38494e-05, No Iterations 2
GAMG:  Solving for p, Initial residual = 0.00152046, Final residual = 0.000106391, No Iterations 1
time step continuity errors : sum local = 43.8151, global = -6.3722, cumulative = -1186.41
ExecutionTime = 157.92 s  ClockTime = 158 s

Time = 1990

smoothSolver:  Solving for Ux, Initial residual = 0.00403816, Final residual = 2.31383e-06, No Iterations 2
smoothSolver:  Solving for Uy, Initial residual = 0.00439866, Final residual = 2.27803e-06, No Iterations 2
smoothSolver:  Solving for Uz, Initial residual = 0.00302115, Final residual = 1.50293e-06, No Iterations 2
GAMG:  Solving for p, Initial residual = 0.0410292, Final residual = 0.00256911, No Iterations 1
GAMG:  Solving for p, Initial residual = 0.011641, Final residual = 0.000927818, No Iterations 1
GAMG:  Solving for p, Initial residual = 0.00457518, Final residual = 0.000425886, No Iterations 1
GAMG:  Solving for p, Initial residual = 0.0023116, Final residual = 0.000230988, No Iterations 1
GAMG:  Solving for p, Initial residual = 0.00132483, Final residual = 6.01872e-05, No Iterations 2
time step continuity errors : sum local = 25.1823, global = -2.86023, cumulative = -1189.27
ExecutionTime = 158 s  ClockTime = 158 s

Time = 1991

smoothSolver:  Solving for Ux, Initial residual = 0.00402541, Final residual = 2.31972e-06, No Iterations 2
smoothSolver:  Solving for Uy, Initial residual = 0.00439892, Final residual = 2.28278e-06, No Iterations 2
smoothSolver:  Solving for Uz, Initial residual = 0.00302124, Final residual = 1.50006e-06, No Iterations 2
GAMG:  Solving for p, Initial residual = 0.0419229, Final residual = 0.00262876, No Iterations 1
GAMG:  Solving for p, Initial residual = 0.0118137, Final residual = 0.000944615, No Iterations 1
GAMG:  Solving for p, Initial residual = 0.00469873, Final residual = 0.000437577, No Iterations 1
GAMG:  Solving for p, Initial residual = 0.00236053, Final residual = 8.27603e-05, No Iterations 2
GAMG:  Solving for p, Initial residual = 0.00153076, Final residual = 0.000107038, No Iterations 1
time step continuity errors : sum local = 44.5336, global = -6.12637, cumulative = -1195.39
ExecutionTime = 158.08 s  ClockTime = 158 s

Time = 1992

smoothSolver:  Solving for Ux, Initial residual = 0.00401587, Final residual = 2.31676e-06, No Iterations 2
smoothSolver:  Solving for Uy, Initial residual = 0.00439756, Final residual = 2.29723e-06, No Iterations 2
smoothSolver:  Solving for Uz, Initial residual = 0.0030218, Final residual = 1.49496e-06, No Iterations 2
GAMG:  Solving for p, Initial residual = 0.0420828, Final residual = 0.00264755, No Iterations 1
GAMG:  Solving for p, Initial residual = 0.0118789, Final residual = 0.000957085, No Iterations 1
GAMG:  Solving for p, Initial residual = 0.00474597, Final residual = 0.000443274, No Iterations 1
GAMG:  Solving for p, Initial residual = 0.00238591, Final residual = 8.4264e-05, No Iterations 2
GAMG:  Solving for p, Initial residual = 0.001541, Final residual = 0.000108347, No Iterations 1
time step continuity errors : sum local = 45.22, global = -6.62735, cumulative = -1202.02
ExecutionTime = 158.15 s  ClockTime = 158 s

Time = 1993

smoothSolver:  Solving for Ux, Initial residual = 0.00400971, Final residual = 2.31756e-06, No Iterations 2
smoothSolver:  Solving for Uy, Initial residual = 0.00438987, Final residual = 2.29774e-06, No Iterations 2
smoothSolver:  Solving for Uz, Initial residual = 0.00302069, Final residual = 1.48461e-06, No Iterations 2
GAMG:  Solving for p, Initial residual = 0.0417566, Final residual = 0.00264414, No Iterations 1
GAMG:  Solving for p, Initial residual = 0.0118334, Final residual = 0.000952464, No Iterations 1
GAMG:  Solving for p, Initial residual = 0.0047034, Final residual = 0.000438244, No Iterations 1
GAMG:  Solving for p, Initial residual = 0.00235571, Final residual = 0.00023501, No Iterations 1
GAMG:  Solving for p, Initial residual = 0.00133982, Final residual = 6.18727e-05, No Iterations 2
time step continuity errors : sum local = 25.9898, global = -3.63342, cumulative = -1205.65
ExecutionTime = 158.24 s  ClockTime = 158 s

Time = 1994

smoothSolver:  Solving for Ux, Initial residual = 0.00401616, Final residual = 2.31128e-06, No Iterations 2
smoothSolver:  Solving for Uy, Initial residual = 0.00438701, Final residual = 2.29498e-06, No Iterations 2
smoothSolver:  Solving for Uz, Initial residual = 0.00302215, Final residual = 1.47855e-06, No Iterations 2
GAMG:  Solving for p, Initial residual = 0.0422851, Final residual = 0.00268872, No Iterations 1
GAMG:  Solving for p, Initial residual = 0.0120327, Final residual = 0.000975239, No Iterations 1
GAMG:  Solving for p, Initial residual = 0.00479268, Final residual = 0.000451338, No Iterations 1
GAMG:  Solving for p, Initial residual = 0.00241441, Final residual = 8.68321e-05, No Iterations 2
GAMG:  Solving for p, Initial residual = 0.00154417, Final residual = 0.00011131, No Iterations 1
time step continuity errors : sum local = 46.6107, global = -7.40565, cumulative = -1213.06
ExecutionTime = 158.31 s  ClockTime = 158 s

Time = 1995

smoothSolver:  Solving for Ux, Initial residual = 0.00402932, Final residual = 2.307e-06, No Iterations 2
smoothSolver:  Solving for Uy, Initial residual = 0.00439255, Final residual = 2.28438e-06, No Iterations 2
smoothSolver:  Solving for Uz, Initial residual = 0.00302247, Final residual = 1.4792e-06, No Iterations 2
GAMG:  Solving for p, Initial residual = 0.0423461, Final residual = 0.00270947, No Iterations 1
GAMG:  Solving for p, Initial residual = 0.0120645, Final residual = 0.000973728, No Iterations 1
GAMG:  Solving for p, Initial residual = 0.00476942, Final residual = 0.000450984, No Iterations 1
GAMG:  Solving for p, Initial residual = 0.00238823, Final residual = 8.82681e-05, No Iterations 2
GAMG:  Solving for p, Initial residual = 0.00153644, Final residual = 0.000110913, No Iterations 1
time step continuity errors : sum local = 46.3814, global = -7.79299, cumulative = -1220.85
ExecutionTime = 158.38 s  ClockTime = 158 s

Time = 1996

smoothSolver:  Solving for Ux, Initial residual = 0.00404053, Final residual = 2.31357e-06, No Iterations 2
smoothSolver:  Solving for Uy, Initial residual = 0.00437382, Final residual = 2.27505e-06, No Iterations 2
smoothSolver:  Solving for Uz, Initial residual = 0.0030272, Final residual = 1.4794e-06, No Iterations 2
GAMG:  Solving for p, Initial residual = 0.0422562, Final residual = 0.00269167, No Iterations 1
GAMG:  Solving for p, Initial residual = 0.012084, Final residual = 0.000978416, No Iterations 1
GAMG:  Solving for p, Initial residual = 0.0047756, Final residual = 0.000458024, No Iterations 1
GAMG:  Solving for p, Initial residual = 0.00241291, Final residual = 9.19273e-05, No Iterations 2
GAMG:  Solving for p, Initial residual = 0.00156832, Final residual = 0.000115149, No Iterations 1
time step continuity errors : sum local = 48.5265, global = -7.9079, cumulative = -1228.76
ExecutionTime = 158.46 s  ClockTime = 158 s

Time = 1997

smoothSolver:  Solving for Ux, Initial residual = 0.00404865, Final residual = 2.30791e-06, No Iterations 2
smoothSolver:  Solving for Uy, Initial residual = 0.00434187, Final residual = 2.23448e-06, No Iterations 2
smoothSolver:  Solving for Uz, Initial residual = 0.00302906, Final residual = 1.47971e-06, No Iterations 2
GAMG:  Solving for p, Initial residual = 0.0421871, Final residual = 0.00270834, No Iterations 1
GAMG:  Solving for p, Initial residual = 0.0119772, Final residual = 0.000967054, No Iterations 1
GAMG:  Solving for p, Initial residual = 0.00473669, Final residual = 0.000448437, No Iterations 1
GAMG:  Solving for p, Initial residual = 0.00237718, Final residual = 9.08098e-05, No Iterations 2
GAMG:  Solving for p, Initial residual = 0.00156105, Final residual = 0.000112379, No Iterations 1
time step continuity errors : sum local = 47.3242, global = -7.93949, cumulative = -1236.7
ExecutionTime = 158.54 s  ClockTime = 158 s

Time = 1998

smoothSolver:  Solving for Ux, Initial residual = 0.00405819, Final residual = 2.32158e-06, No Iterations 2
smoothSolver:  Solving for Uy, Initial residual = 0.0043246, Final residual = 2.22885e-06, No Iterations 2
smoothSolver:  Solving for Uz, Initial residual = 0.00302886, Final residual = 1.47586e-06, No Iterations 2
GAMG:  Solving for p, Initial residual = 0.0422561, Final residual = 0.00270489, No Iterations 1
GAMG:  Solving for p, Initial residual = 0.0120721, Final residual = 0.000975081, No Iterations 1
GAMG:  Solving for p, Initial residual = 0.0047728, Final residual = 0.000450773, No Iterations 1
GAMG:  Solving for p, Initial residual = 0.00241766, Final residual = 9.32291e-05, No Iterations 2
GAMG:  Solving for p, Initial residual = 0.00160552, Final residual = 0.000116269, No Iterations 1
time step continuity errors : sum local = 49.1059, global = -7.73889, cumulative = -1244.44
ExecutionTime = 158.61 s  ClockTime = 158 s

Time = 1999

smoothSolver:  Solving for Ux, Initial residual = 0.00406467, Final residual = 2.30948e-06, No Iterations 2
smoothSolver:  Solving for Uy, Initial residual = 0.00432477, Final residual = 2.22861e-06, No Iterations 2
smoothSolver:  Solving for Uz, Initial residual = 0.00303193, Final residual = 1.47502e-06, No Iterations 2
GAMG:  Solving for p, Initial residual = 0.0420758, Final residual = 0.00267224, No Iterations 1
GAMG:  Solving for p, Initial residual = 0.011948, Final residual = 0.000957351, No Iterations 1
GAMG:  Solving for p, Initial residual = 0.00472142, Final residual = 0.000442845, No Iterations 1
GAMG:  Solving for p, Initial residual = 0.00237696, Final residual = 9.07963e-05, No Iterations 2
GAMG:  Solving for p, Initial residual = 0.00157412, Final residual = 0.000111798, No Iterations 1
time step continuity errors : sum local = 47.8191, global = -7.39315, cumulative = -1251.83
ExecutionTime = 158.7 s  ClockTime = 159 s

Time = 2000

smoothSolver:  Solving for Ux, Initial residual = 0.00404946, Final residual = 2.28884e-06, No Iterations 2
smoothSolver:  Solving for Uy, Initial residual = 0.00432479, Final residual = 2.23657e-06, No Iterations 2
smoothSolver:  Solving for Uz, Initial residual = 0.00303433, Final residual = 1.46569e-06, No Iterations 2
GAMG:  Solving for p, Initial residual = 0.0421062, Final residual = 0.00267151, No Iterations 1
GAMG:  Solving for p, Initial residual = 0.0119492, Final residual = 0.000956802, No Iterations 1
GAMG:  Solving for p, Initial residual = 0.00473528, Final residual = 0.00044439, No Iterations 1
GAMG:  Solving for p, Initial residual = 0.00238754, Final residual = 9.12474e-05, No Iterations 2
GAMG:  Solving for p, Initial residual = 0.00158835, Final residual = 0.000112803, No Iterations 1
time step continuity errors : sum local = 48.2908, global = -6.94143, cumulative = -1258.77
ExecutionTime = 158.91 s  ClockTime = 159 s

End

