/*---------------------------------------------------------------------------*\
| =========                 |                                                 |
| \\      /  F ield         | OpenFOAM: The Open Source CFD Toolbox           |
|  \\    /   O peration     | Version:  2506                                  |
|   \\  /    A nd           | Website:  www.openfoam.com                      |
|    \\/     M anipulation  |                                                 |
\*---------------------------------------------------------------------------*/
Build  : _615aae61-20250627 OPENFOAM=2506 version=2506
Arch   : "LSB;label=32;scalar=64"
Exec   : simpleFoam -noFunctionObjects -case /home/ubuntu/fan_CFD_dataset/cases/fan_12
Date   : Nov 07 2025
Time   : 14:46:11
Host   : ip-172-31-37-87
PID    : 170001
I/O    : uncollated
Case   : /home/ubuntu/fan_CFD_dataset/cases/fan_12
nProcs : 1
trapFpe: Floating point exception trapping enabled (FOAM_SIGFPE).
fileModificationChecking : Monitoring run-time modified files using timeStampMaster (fileModificationSkew 5, maxFileModificationPolls 20)
allowSystemOperations : Allowing user-supplied system call operations

// * * * * * * * * * * * * * * * * * * * * * * * * * * * * * * * * * * * * * //
Create time

Create mesh for time = 0


SIMPLE: convergence criteria
    field U	 tolerance 1e-05
    field p	 tolerance 0.0001

Reading field p

Reading field U

Reading/calculating face flux field phi

Selecting incompressible transport model Newtonian
Selecting turbulence model type laminar
Selecting laminar stress model Stokes
No MRF models present

No finite volume options present

Starting time loop

Time = 1

smoothSolver:  Solving for Ux, Initial residual = 1, Final residual = 0.000343295, No Iterations 2
smoothSolver:  Solving for Uy, Initial residual = 1, Final residual = 0.000331354, No Iterations 2
smoothSolver:  Solving for Uz, Initial residual = 1, Final residual = 0.000636847, No Iterations 2
GAMG:  Solving for p, Initial residual = 1, Final residual = 0.0956271, No Iterations 3
GAMG:  Solving for p, Initial residual = 0.146576, Final residual = 0.00990759, No Iterations 1
GAMG:  Solving for p, Initial residual = 0.0376358, Final residual = 0.00145935, No Iterations 2
GAMG:  Solving for p, Initial residual = 0.024589, Final residual = 0.00172402, No Iterations 1
GAMG:  Solving for p, Initial residual = 0.00988754, Final residual = 0.000452952, No Iterations 2
time step continuity errors : sum local = 4.23743, global = -0.674743, cumulative = -0.674743
ExecutionTime = 0.25 s  ClockTime = 0 s

Time = 2

smoothSolver:  Solving for Ux, Initial residual = 0.0664449, Final residual = 2.80383e-05, No Iterations 2
smoothSolver:  Solving for Uy, Initial residual = 0.0677491, Final residual = 2.91983e-05, No Iterations 2
smoothSolver:  Solving for Uz, Initial residual = 0.167988, Final residual = 5.86169e-05, No Iterations 2
GAMG:  Solving for p, Initial residual = 0.530128, Final residual = 0.0241479, No Iterations 4
GAMG:  Solving for p, Initial residual = 0.0777334, Final residual = 0.00529922, No Iterations 1
GAMG:  Solving for p, Initial residual = 0.0246154, Final residual = 0.00237225, No Iterations 1
GAMG:  Solving for p, Initial residual = 0.0140393, Final residual = 0.00064314, No Iterations 2
GAMG:  Solving for p, Initial residual = 0.0109847, Final residual = 0.000821224, No Iterations 1
time step continuity errors : sum local = 12.7526, global = -3.86377, cumulative = -4.53851
ExecutionTime = 0.32 s  ClockTime = 0 s

Time = 3

smoothSolver:  Solving for Ux, Initial residual = 0.193875, Final residual = 9.08205e-05, No Iterations 2
smoothSolver:  Solving for Uy, Initial residual = 0.195084, Final residual = 9.02445e-05, No Iterations 2
smoothSolver:  Solving for Uz, Initial residual = 0.456982, Final residual = 0.000176458, No Iterations 2
GAMG:  Solving for p, Initial residual = 0.0913354, Final residual = 0.00555558, No Iterations 3
GAMG:  Solving for p, Initial residual = 0.0754285, Final residual = 0.00509994, No Iterations 1
GAMG:  Solving for p, Initial residual = 0.0225743, Final residual = 0.00225308, No Iterations 1
GAMG:  Solving for p, Initial residual = 0.0132522, Final residual = 0.000609051, No Iterations 2
GAMG:  Solving for p, Initial residual = 0.0101234, Final residual = 0.000754703, No Iterations 1
time step continuity errors : sum local = 6.14361, global = -1.95523, cumulative = -6.49374
ExecutionTime = 0.4 s  ClockTime = 0 s

Time = 4

smoothSolver:  Solving for Ux, Initial residual = 0.177228, Final residual = 8.07291e-05, No Iterations 2
smoothSolver:  Solving for Uy, Initial residual = 0.17754, Final residual = 8.13029e-05, No Iterations 2
smoothSolver:  Solving for Uz, Initial residual = 0.490456, Final residual = 0.000195712, No Iterations 2
GAMG:  Solving for p, Initial residual = 0.044251, Final residual = 0.00370101, No Iterations 1
GAMG:  Solving for p, Initial residual = 0.0176214, Final residual = 0.000871791, No Iterations 2
GAMG:  Solving for p, Initial residual = 0.0141714, Final residual = 0.00099169, No Iterations 1
GAMG:  Solving for p, Initial residual = 0.00598567, Final residual = 0.000289361, No Iterations 2
GAMG:  Solving for p, Initial residual = 0.00537217, Final residual = 0.000405392, No Iterations 1
time step continuity errors : sum local = 2.18097, global = -0.584565, cumulative = -7.0783
ExecutionTime = 0.48 s  ClockTime = 0 s

Time = 5

smoothSolver:  Solving for Ux, Initial residual = 0.133125, Final residual = 5.68777e-05, No Iterations 2
smoothSolver:  Solving for Uy, Initial residual = 0.132759, Final residual = 5.72806e-05, No Iterations 2
smoothSolver:  Solving for Uz, Initial residual = 0.433513, Final residual = 0.000169032, No Iterations 2
GAMG:  Solving for p, Initial residual = 0.0464052, Final residual = 0.00306841, No Iterations 2
GAMG:  Solving for p, Initial residual = 0.0928086, Final residual = 0.0060789, No Iterations 1
GAMG:  Solving for p, Initial residual = 0.0393712, Final residual = 0.00186986, No Iterations 2
GAMG:  Solving for p, Initial residual = 0.0506284, Final residual = 0.00337147, No Iterations 1
GAMG:  Solving for p, Initial residual = 0.0222061, Final residual = 0.00101254, No Iterations 2
time step continuity errors : sum local = 1.29814, global = 0.174874, cumulative = -6.90343
ExecutionTime = 0.55 s  ClockTime = 0 s

Time = 6

smoothSolver:  Solving for Ux, Initial residual = 0.091347, Final residual = 3.88491e-05, No Iterations 2
smoothSolver:  Solving for Uy, Initial residual = 0.090507, Final residual = 3.91436e-05, No Iterations 2
smoothSolver:  Solving for Uz, Initial residual = 0.327975, Final residual = 0.0001278, No Iterations 2
GAMG:  Solving for p, Initial residual = 0.0594926, Final residual = 0.00388074, No Iterations 3
GAMG:  Solving for p, Initial residual = 0.197483, Final residual = 0.0132944, No Iterations 1
GAMG:  Solving for p, Initial residual = 0.0686351, Final residual = 0.00284951, No Iterations 2
GAMG:  Solving for p, Initial residual = 0.0441514, Final residual = 0.00311224, No Iterations 1
GAMG:  Solving for p, Initial residual = 0.0190133, Final residual = 0.000887113, No Iterations 2
time step continuity errors : sum local = 2.41921, global = 0.294201, cumulative = -6.60923
ExecutionTime = 0.63 s  ClockTime = 1 s

Time = 7

smoothSolver:  Solving for Ux, Initial residual = 0.0571441, Final residual = 2.62014e-05, No Iterations 2
smoothSolver:  Solving for Uy, Initial residual = 0.0559489, Final residual = 2.61596e-05, No Iterations 2
smoothSolver:  Solving for Uz, Initial residual = 0.197176, Final residual = 8.17661e-05, No Iterations 2
GAMG:  Solving for p, Initial residual = 0.0877629, Final residual = 0.0064432, No Iterations 3
GAMG:  Solving for p, Initial residual = 0.142973, Final residual = 0.00960139, No Iterations 1
GAMG:  Solving for p, Initial residual = 0.0462671, Final residual = 0.00192361, No Iterations 2
GAMG:  Solving for p, Initial residual = 0.0312563, Final residual = 0.00222621, No Iterations 1
GAMG:  Solving for p, Initial residual = 0.0136592, Final residual = 0.000645982, No Iterations 2
time step continuity errors : sum local = 2.96005, global = 0.348538, cumulative = -6.26069
ExecutionTime = 0.71 s  ClockTime = 1 s

Time = 8

smoothSolver:  Solving for Ux, Initial residual = 0.0380508, Final residual = 1.9675e-05, No Iterations 2
smoothSolver:  Solving for Uy, Initial residual = 0.0370298, Final residual = 1.96131e-05, No Iterations 2
smoothSolver:  Solving for Uz, Initial residual = 0.084291, Final residual = 4.35212e-05, No Iterations 2
GAMG:  Solving for p, Initial residual = 0.196913, Final residual = 0.0126308, No Iterations 3
GAMG:  Solving for p, Initial residual = 0.113606, Final residual = 0.00764815, No Iterations 1
GAMG:  Solving for p, Initial residual = 0.0358442, Final residual = 0.0014914, No Iterations 2
GAMG:  Solving for p, Initial residual = 0.025003, Final residual = 0.00180584, No Iterations 1
GAMG:  Solving for p, Initial residual = 0.0111595, Final residual = 0.000536156, No Iterations 2
time step continuity errors : sum local = 2.77201, global = 0.317299, cumulative = -5.94339
ExecutionTime = 0.79 s  ClockTime = 1 s

Time = 9

smoothSolver:  Solving for Ux, Initial residual = 0.0415449, Final residual = 2.2902e-05, No Iterations 2
smoothSolver:  Solving for Uy, Initial residual = 0.0414683, Final residual = 2.27235e-05, No Iterations 2
smoothSolver:  Solving for Uz, Initial residual = 0.0860121, Final residual = 4.38574e-05, No Iterations 2
GAMG:  Solving for p, Initial residual = 0.19926, Final residual = 0.0150832, No Iterations 2
GAMG:  Solving for p, Initial residual = 0.0853143, Final residual = 0.00571461, No Iterations 1
GAMG:  Solving for p, Initial residual = 0.0291329, Final residual = 0.00138651, No Iterations 2
GAMG:  Solving for p, Initial residual = 0.0232753, Final residual = 0.00167278, No Iterations 1
GAMG:  Solving for p, Initial residual = 0.0102108, Final residual = 0.000503014, No Iterations 2
time step continuity errors : sum local = 2.28113, global = 0.24294, cumulative = -5.70045
ExecutionTime = 0.86 s  ClockTime = 1 s

Time = 10

smoothSolver:  Solving for Ux, Initial residual = 0.0555003, Final residual = 2.86952e-05, No Iterations 2
smoothSolver:  Solving for Uy, Initial residual = 0.0559015, Final residual = 2.86368e-05, No Iterations 2
smoothSolver:  Solving for Uz, Initial residual = 0.173408, Final residual = 7.29156e-05, No Iterations 2
GAMG:  Solving for p, Initial residual = 0.121339, Final residual = 0.0112091, No Iterations 1
GAMG:  Solving for p, Initial residual = 0.0476916, Final residual = 0.00224451, No Iterations 2
GAMG:  Solving for p, Initial residual = 0.0321827, Final residual = 0.0022555, No Iterations 1
GAMG:  Solving for p, Initial residual = 0.0135503, Final residual = 0.000662824, No Iterations 2
GAMG:  Solving for p, Initial residual = 0.0116952, Final residual = 0.000894541, No Iterations 1
time step continuity errors : sum local = 2.81444, global = 0.794931, cumulative = -4.90552
ExecutionTime = 0.93 s  ClockTime = 1 s

Time = 11

smoothSolver:  Solving for Ux, Initial residual = 0.0640107, Final residual = 3.16521e-05, No Iterations 2
smoothSolver:  Solving for Uy, Initial residual = 0.064746, Final residual = 3.21002e-05, No Iterations 2
smoothSolver:  Solving for Uz, Initial residual = 0.23527, Final residual = 9.47474e-05, No Iterations 2
GAMG:  Solving for p, Initial residual = 0.102619, Final residual = 0.00813682, No Iterations 1
GAMG:  Solving for p, Initial residual = 0.0391283, Final residual = 0.0038333, No Iterations 1
GAMG:  Solving for p, Initial residual = 0.0215722, Final residual = 0.000977284, No Iterations 2
GAMG:  Solving for p, Initial residual = 0.0184786, Final residual = 0.00128721, No Iterations 1
GAMG:  Solving for p, Initial residual = 0.00795208, Final residual = 0.000361717, No Iterations 2
time step continuity errors : sum local = 0.54113, global = -0.040159, cumulative = -4.94568
ExecutionTime = 1.01 s  ClockTime = 1 s

Time = 12

smoothSolver:  Solving for Ux, Initial residual = 0.0636468, Final residual = 3.187e-05, No Iterations 2
smoothSolver:  Solving for Uy, Initial residual = 0.0644957, Final residual = 3.23822e-05, No Iterations 2
smoothSolver:  Solving for Uz, Initial residual = 0.244752, Final residual = 9.72242e-05, No Iterations 2
GAMG:  Solving for p, Initial residual = 0.101985, Final residual = 0.00519729, No Iterations 2
GAMG:  Solving for p, Initial residual = 0.292471, Final residual = 0.0189331, No Iterations 1
GAMG:  Solving for p, Initial residual = 0.102287, Final residual = 0.00472454, No Iterations 2
GAMG:  Solving for p, Initial residual = 0.0605693, Final residual = 0.00394161, No Iterations 1
GAMG:  Solving for p, Initial residual = 0.0242553, Final residual = 0.00108141, No Iterations 2
time step continuity errors : sum local = 0.916899, global = -0.129852, cumulative = -5.07553
ExecutionTime = 1.08 s  ClockTime = 1 s

Time = 13

smoothSolver:  Solving for Ux, Initial residual = 0.0542183, Final residual = 2.84513e-05, No Iterations 2
smoothSolver:  Solving for Uy, Initial residual = 0.0550527, Final residual = 2.89016e-05, No Iterations 2
smoothSolver:  Solving for Uz, Initial residual = 0.189766, Final residual = 7.74212e-05, No Iterations 2
GAMG:  Solving for p, Initial residual = 0.118614, Final residual = 0.00838358, No Iterations 2
GAMG:  Solving for p, Initial residual = 0.159906, Final residual = 0.0104782, No Iterations 1
GAMG:  Solving for p, Initial residual = 0.0547253, Final residual = 0.00260239, No Iterations 2
GAMG:  Solving for p, Initial residual = 0.0390596, Final residual = 0.00262869, No Iterations 1
GAMG:  Solving for p, Initial residual = 0.0157855, Final residual = 0.000728849, No Iterations 2
time step continuity errors : sum local = 1.35799, global = -0.181354, cumulative = -5.25689
ExecutionTime = 1.16 s  ClockTime = 1 s

Time = 14

smoothSolver:  Solving for Ux, Initial residual = 0.0420453, Final residual = 2.35826e-05, No Iterations 2
smoothSolver:  Solving for Uy, Initial residual = 0.0430975, Final residual = 2.42895e-05, No Iterations 2
smoothSolver:  Solving for Uz, Initial residual = 0.100633, Final residual = 4.80779e-05, No Iterations 2
GAMG:  Solving for p, Initial residual = 0.176414, Final residual = 0.0142004, No Iterations 2
GAMG:  Solving for p, Initial residual = 0.121083, Final residual = 0.0080081, No Iterations 1
GAMG:  Solving for p, Initial residual = 0.0410542, Final residual = 0.00196738, No Iterations 2
GAMG:  Solving for p, Initial residual = 0.0312401, Final residual = 0.00214217, No Iterations 1
GAMG:  Solving for p, Initial residual = 0.0129215, Final residual = 0.000606007, No Iterations 2
time step continuity errors : sum local = 1.44763, global = -0.182136, cumulative = -5.43902
ExecutionTime = 1.24 s  ClockTime = 1 s

Time = 15

smoothSolver:  Solving for Ux, Initial residual = 0.036099, Final residual = 2.05741e-05, No Iterations 2
smoothSolver:  Solving for Uy, Initial residual = 0.0371849, Final residual = 2.17934e-05, No Iterations 2
smoothSolver:  Solving for Uz, Initial residual = 0.0529874, Final residual = 3.0771e-05, No Iterations 2
GAMG:  Solving for p, Initial residual = 0.351852, Final residual = 0.026128, No Iterations 2
GAMG:  Solving for p, Initial residual = 0.0946045, Final residual = 0.0063785, No Iterations 1
GAMG:  Solving for p, Initial residual = 0.0323271, Final residual = 0.00156128, No Iterations 2
GAMG:  Solving for p, Initial residual = 0.0259216, Final residual = 0.00182419, No Iterations 1
GAMG:  Solving for p, Initial residual = 0.0110581, Final residual = 0.000527864, No Iterations 2
time step continuity errors : sum local = 1.23911, global = -0.145164, cumulative = -5.58419
ExecutionTime = 1.32 s  ClockTime = 1 s

Time = 16

smoothSolver:  Solving for Ux, Initial residual = 0.0360261, Final residual = 1.96907e-05, No Iterations 2
smoothSolver:  Solving for Uy, Initial residual = 0.0373981, Final residual = 2.08387e-05, No Iterations 2
smoothSolver:  Solving for Uz, Initial residual = 0.0890999, Final residual = 3.88094e-05, No Iterations 2
GAMG:  Solving for p, Initial residual = 0.150447, Final residual = 0.00838102, No Iterations 2
GAMG:  Solving for p, Initial residual = 0.0678436, Final residual = 0.00478743, No Iterations 1
GAMG:  Solving for p, Initial residual = 0.0247875, Final residual = 0.00123946, No Iterations 2
GAMG:  Solving for p, Initial residual = 0.0210116, Final residual = 0.00154454, No Iterations 1
GAMG:  Solving for p, Initial residual = 0.00937864, Final residual = 0.000467889, No Iterations 2
time step continuity errors : sum local = 0.86473, global = -0.0888673, cumulative = -5.67305
ExecutionTime = 1.39 s  ClockTime = 1 s

Time = 17

smoothSolver:  Solving for Ux, Initial residual = 0.0354393, Final residual = 1.86285e-05, No Iterations 2
smoothSolver:  Solving for Uy, Initial residual = 0.0368018, Final residual = 1.96087e-05, No Iterations 2
smoothSolver:  Solving for Uz, Initial residual = 0.118014, Final residual = 4.59188e-05, No Iterations 2
GAMG:  Solving for p, Initial residual = 0.108496, Final residual = 0.00312616, No Iterations 2
GAMG:  Solving for p, Initial residual = 0.0455933, Final residual = 0.0036207, No Iterations 1
GAMG:  Solving for p, Initial residual = 0.0191282, Final residual = 0.000917476, No Iterations 2
GAMG:  Solving for p, Initial residual = 0.0146587, Final residual = 0.00122947, No Iterations 1
GAMG:  Solving for p, Initial residual = 0.00743799, Final residual = 0.000400367, No Iterations 2
time step continuity errors : sum local = 0.443352, global = -0.0427772, cumulative = -5.71583
ExecutionTime = 1.46 s  ClockTime = 1 s

Time = 18

smoothSolver:  Solving for Ux, Initial residual = 0.03203, Final residual = 1.68123e-05, No Iterations 2
smoothSolver:  Solving for Uy, Initial residual = 0.0331904, Final residual = 1.73385e-05, No Iterations 2
smoothSolver:  Solving for Uz, Initial residual = 0.116657, Final residual = 4.47888e-05, No Iterations 2
GAMG:  Solving for p, Initial residual = 0.0988202, Final residual = 0.00400422, No Iterations 2
GAMG:  Solving for p, Initial residual = 0.103928, Final residual = 0.00695829, No Iterations 1
GAMG:  Solving for p, Initial residual = 0.0394072, Final residual = 0.00174512, No Iterations 2
GAMG:  Solving for p, Initial residual = 0.040673, Final residual = 0.00275312, No Iterations 1
GAMG:  Solving for p, Initial residual = 0.0172868, Final residual = 0.00076344, No Iterations 2
time step continuity errors : sum local = 0.304392, global = 0.0331542, cumulative = -5.68268
ExecutionTime = 1.54 s  ClockTime = 1 s

Time = 19

smoothSolver:  Solving for Ux, Initial residual = 0.0271498, Final residual = 1.45675e-05, No Iterations 2
smoothSolver:  Solving for Uy, Initial residual = 0.0278435, Final residual = 1.49836e-05, No Iterations 2
smoothSolver:  Solving for Uz, Initial residual = 0.0940996, Final residual = 3.62186e-05, No Iterations 2
GAMG:  Solving for p, Initial residual = 0.102484, Final residual = 0.00615538, No Iterations 2
GAMG:  Solving for p, Initial residual = 0.197263, Final residual = 0.0129158, No Iterations 1
GAMG:  Solving for p, Initial residual = 0.0658742, Final residual = 0.00307497, No Iterations 2
GAMG:  Solving for p, Initial residual = 0.044361, Final residual = 0.00292534, No Iterations 1
GAMG:  Solving for p, Initial residual = 0.01758, Final residual = 0.00079251, No Iterations 2
time step continuity errors : sum local = 0.510577, global = 0.0744998, cumulative = -5.60818
ExecutionTime = 1.62 s  ClockTime = 2 s

Time = 20

smoothSolver:  Solving for Ux, Initial residual = 0.0229652, Final residual = 1.26831e-05, No Iterations 2
smoothSolver:  Solving for Uy, Initial residual = 0.0232301, Final residual = 1.28243e-05, No Iterations 2
smoothSolver:  Solving for Uz, Initial residual = 0.0609712, Final residual = 2.51445e-05, No Iterations 2
GAMG:  Solving for p, Initial residual = 0.123025, Final residual = 0.00903088, No Iterations 2
GAMG:  Solving for p, Initial residual = 0.135361, Final residual = 0.00891748, No Iterations 1
GAMG:  Solving for p, Initial residual = 0.045822, Final residual = 0.00217096, No Iterations 2
GAMG:  Solving for p, Initial residual = 0.0340451, Final residual = 0.00229099, No Iterations 1
GAMG:  Solving for p, Initial residual = 0.0138075, Final residual = 0.000635632, No Iterations 2
time step continuity errors : sum local = 0.638232, global = 0.0897962, cumulative = -5.51838
ExecutionTime = 1.69 s  ClockTime = 2 s

Time = 21

smoothSolver:  Solving for Ux, Initial residual = 0.0212241, Final residual = 1.16667e-05, No Iterations 2
smoothSolver:  Solving for Uy, Initial residual = 0.0213257, Final residual = 1.17396e-05, No Iterations 2
smoothSolver:  Solving for Uz, Initial residual = 0.0317398, Final residual = 1.61635e-05, No Iterations 2
GAMG:  Solving for p, Initial residual = 0.194489, Final residual = 0.0145617, No Iterations 2
GAMG:  Solving for p, Initial residual = 0.105249, Final residual = 0.00703028, No Iterations 1
GAMG:  Solving for p, Initial residual = 0.035932, Final residual = 0.00172726, No Iterations 2
GAMG:  Solving for p, Initial residual = 0.0283187, Final residual = 0.00195979, No Iterations 1
GAMG:  Solving for p, Initial residual = 0.0118416, Final residual = 0.000558, No Iterations 2
time step continuity errors : sum local = 0.628221, global = 0.0813721, cumulative = -5.43701
ExecutionTime = 1.77 s  ClockTime = 2 s

Time = 22

smoothSolver:  Solving for Ux, Initial residual = 0.0215996, Final residual = 1.13227e-05, No Iterations 2
smoothSolver:  Solving for Uy, Initial residual = 0.021743, Final residual = 1.15251e-05, No Iterations 2
smoothSolver:  Solving for Uz, Initial residual = 0.0279259, Final residual = 1.46884e-05, No Iterations 2
GAMG:  Solving for p, Initial residual = 0.216641, Final residual = 0.0135441, No Iterations 2
GAMG:  Solving for p, Initial residual = 0.0804869, Final residual = 0.00556598, No Iterations 1
GAMG:  Solving for p, Initial residual = 0.028524, Final residual = 0.00140703, No Iterations 2
GAMG:  Solving for p, Initial residual = 0.0237729, Final residual = 0.00170722, No Iterations 1
GAMG:  Solving for p, Initial residual = 0.0103426, Final residual = 0.000503881, No Iterations 2
time step continuity errors : sum local = 0.509766, global = 0.0593048, cumulative = -5.3777
ExecutionTime = 1.84 s  ClockTime = 2 s

Time = 23

smoothSolver:  Solving for Ux, Initial residual = 0.0223727, Final residual = 1.12745e-05, No Iterations 2
smoothSolver:  Solving for Uy, Initial residual = 0.022614, Final residual = 1.14647e-05, No Iterations 2
smoothSolver:  Solving for Uz, Initial residual = 0.0406276, Final residual = 1.79261e-05, No Iterations 2
GAMG:  Solving for p, Initial residual = 0.132768, Final residual = 0.00620079, No Iterations 2
GAMG:  Solving for p, Initial residual = 0.0571604, Final residual = 0.00435774, No Iterations 1
GAMG:  Solving for p, Initial residual = 0.0229079, Final residual = 0.00118565, No Iterations 2
GAMG:  Solving for p, Initial residual = 0.0198196, Final residual = 0.00151244, No Iterations 1
GAMG:  Solving for p, Initial residual = 0.00912194, Final residual = 0.000472658, No Iterations 2
time step continuity errors : sum local = 0.343005, global = 0.0341547, cumulative = -5.34355
ExecutionTime = 1.92 s  ClockTime = 2 s

Time = 24

smoothSolver:  Solving for Ux, Initial residual = 0.0222899, Final residual = 1.09363e-05, No Iterations 2
smoothSolver:  Solving for Uy, Initial residual = 0.0226737, Final residual = 1.11809e-05, No Iterations 2
smoothSolver:  Solving for Uz, Initial residual = 0.0490332, Final residual = 1.97307e-05, No Iterations 2
GAMG:  Solving for p, Initial residual = 0.110997, Final residual = 0.00343552, No Iterations 2
GAMG:  Solving for p, Initial residual = 0.0581214, Final residual = 0.00456598, No Iterations 1
GAMG:  Solving for p, Initial residual = 0.0228058, Final residual = 0.000983619, No Iterations 2
GAMG:  Solving for p, Initial residual = 0.0169351, Final residual = 0.00146312, No Iterations 1
GAMG:  Solving for p, Initial residual = 0.00847879, Final residual = 0.000382805, No Iterations 2
time step continuity errors : sum local = 0.154172, global = -0.0137511, cumulative = -5.3573
ExecutionTime = 2 s  ClockTime = 2 s

Time = 25

smoothSolver:  Solving for Ux, Initial residual = 0.0211276, Final residual = 1.03363e-05, No Iterations 2
smoothSolver:  Solving for Uy, Initial residual = 0.0216018, Final residual = 1.06318e-05, No Iterations 2
smoothSolver:  Solving for Uz, Initial residual = 0.0473097, Final residual = 1.86383e-05, No Iterations 2
GAMG:  Solving for p, Initial residual = 0.108039, Final residual = 0.00509488, No Iterations 2
GAMG:  Solving for p, Initial residual = 0.191945, Final residual = 0.0129879, No Iterations 1
GAMG:  Solving for p, Initial residual = 0.0669022, Final residual = 0.00309229, No Iterations 2
GAMG:  Solving for p, Initial residual = 0.0426851, Final residual = 0.0028967, No Iterations 1
GAMG:  Solving for p, Initial residual = 0.0170841, Final residual = 0.000771834, No Iterations 2
time step continuity errors : sum local = 0.184609, global = -0.0240209, cumulative = -5.38132
ExecutionTime = 2.08 s  ClockTime = 2 s

Time = 26

smoothSolver:  Solving for Ux, Initial residual = 0.0193445, Final residual = 9.61491e-06, No Iterations 2
smoothSolver:  Solving for Uy, Initial residual = 0.0198404, Final residual = 9.8805e-06, No Iterations 2
smoothSolver:  Solving for Uz, Initial residual = 0.0366997, Final residual = 1.50863e-05, No Iterations 2
GAMG:  Solving for p, Initial residual = 0.119522, Final residual = 0.00718712, No Iterations 2
GAMG:  Solving for p, Initial residual = 0.126385, Final residual = 0.00836629, No Iterations 1
GAMG:  Solving for p, Initial residual = 0.0416956, Final residual = 0.00196796, No Iterations 2
GAMG:  Solving for p, Initial residual = 0.0309514, Final residual = 0.00205418, No Iterations 1
GAMG:  Solving for p, Initial residual = 0.0122781, Final residual = 0.000561009, No Iterations 2
time step continuity errors : sum local = 0.258498, global = -0.0384829, cumulative = -5.4198
ExecutionTime = 2.15 s  ClockTime = 2 s

Time = 27

smoothSolver:  Solving for Ux, Initial residual = 0.0177039, Final residual = 9.00968e-06, No Iterations 2
smoothSolver:  Solving for Uy, Initial residual = 0.0181666, Final residual = 9.22951e-06, No Iterations 2
smoothSolver:  Solving for Uz, Initial residual = 0.0240154, Final residual = 1.10561e-05, No Iterations 2
GAMG:  Solving for p, Initial residual = 0.155895, Final residual = 0.010237, No Iterations 2
GAMG:  Solving for p, Initial residual = 0.0977956, Final residual = 0.00650424, No Iterations 1
GAMG:  Solving for p, Initial residual = 0.0329553, Final residual = 0.00156614, No Iterations 2
GAMG:  Solving for p, Initial residual = 0.0259613, Final residual = 0.00175548, No Iterations 1
GAMG:  Solving for p, Initial residual = 0.0105789, Final residual = 0.00049018, No Iterations 2
time step continuity errors : sum local = 0.288897, global = -0.0409198, cumulative = -5.46072
ExecutionTime = 2.23 s  ClockTime = 2 s

Time = 28

smoothSolver:  Solving for Ux, Initial residual = 0.0165231, Final residual = 8.53316e-06, No Iterations 2
smoothSolver:  Solving for Uy, Initial residual = 0.0170225, Final residual = 8.75575e-06, No Iterations 2
smoothSolver:  Solving for Uz, Initial residual = 0.0183589, Final residual = 9.19277e-06, No Iterations 2
GAMG:  Solving for p, Initial residual = 0.226187, Final residual = 0.0138243, No Iterations 2
GAMG:  Solving for p, Initial residual = 0.0768465, Final residual = 0.00520013, No Iterations 1
GAMG:  Solving for p, Initial residual = 0.0266365, Final residual = 0.00128871, No Iterations 2
GAMG:  Solving for p, Initial residual = 0.0220429, Final residual = 0.00153011, No Iterations 1
GAMG:  Solving for p, Initial residual = 0.00930254, Final residual = 0.000441284, No Iterations 2
time step continuity errors : sum local = 0.267298, global = -0.0345297, cumulative = -5.49525
ExecutionTime = 2.31 s  ClockTime = 2 s

Time = 29

smoothSolver:  Solving for Ux, Initial residual = 0.0157423, Final residual = 8.18587e-06, No Iterations 2
smoothSolver:  Solving for Uy, Initial residual = 0.0162138, Final residual = 8.40381e-06, No Iterations 2
smoothSolver:  Solving for Uz, Initial residual = 0.0214442, Final residual = 9.8217e-06, No Iterations 2
GAMG:  Solving for p, Initial residual = 0.131329, Final residual = 0.00666012, No Iterations 2
GAMG:  Solving for p, Initial residual = 0.0571998, Final residual = 0.00407727, No Iterations 1
GAMG:  Solving for p, Initial residual = 0.0211934, Final residual = 0.00105878, No Iterations 2
GAMG:  Solving for p, Initial residual = 0.0184183, Final residual = 0.00133101, No Iterations 1
GAMG:  Solving for p, Initial residual = 0.00810011, Final residual = 0.000398428, No Iterations 2
time step continuity errors : sum local = 0.20804, global = -0.0238126, cumulative = -5.51907
ExecutionTime = 2.38 s  ClockTime = 2 s

Time = 30

smoothSolver:  Solving for Ux, Initial residual = 0.015005, Final residual = 7.79632e-06, No Iterations 2
smoothSolver:  Solving for Uy, Initial residual = 0.0154222, Final residual = 8.06136e-06, No Iterations 2
smoothSolver:  Solving for Uz, Initial residual = 0.0259148, Final residual = 1.08661e-05, No Iterations 2
GAMG:  Solving for p, Initial residual = 0.101489, Final residual = 0.003502, No Iterations 2
GAMG:  Solving for p, Initial residual = 0.0436562, Final residual = 0.00342381, No Iterations 1
GAMG:  Solving for p, Initial residual = 0.0175429, Final residual = 0.000866722, No Iterations 2
GAMG:  Solving for p, Initial residual = 0.0142477, Final residual = 0.00112817, No Iterations 1
GAMG:  Solving for p, Initial residual = 0.00677183, Final residual = 0.000357537, No Iterations 2
time step continuity errors : sum local = 0.135086, global = -0.013577, cumulative = -5.53264
ExecutionTime = 2.46 s  ClockTime = 2 s

Time = 31

smoothSolver:  Solving for Ux, Initial residual = 0.0142903, Final residual = 7.44685e-06, No Iterations 2
smoothSolver:  Solving for Uy, Initial residual = 0.0145662, Final residual = 7.65597e-06, No Iterations 2
smoothSolver:  Solving for Uz, Initial residual = 0.0269503, Final residual = 1.10445e-05, No Iterations 2
GAMG:  Solving for p, Initial residual = 0.0919973, Final residual = 0.00311141, No Iterations 2
GAMG:  Solving for p, Initial residual = 0.0552774, Final residual = 0.00403718, No Iterations 1
GAMG:  Solving for p, Initial residual = 0.0202526, Final residual = 0.000899404, No Iterations 2
GAMG:  Solving for p, Initial residual = 0.016007, Final residual = 0.00123332, No Iterations 1
GAMG:  Solving for p, Initial residual = 0.00731811, Final residual = 0.000332049, No Iterations 2
time step continuity errors : sum local = 0.0776264, global = 0.00792867, cumulative = -5.52471
ExecutionTime = 2.53 s  ClockTime = 2 s

Time = 32

smoothSolver:  Solving for Ux, Initial residual = 0.0136316, Final residual = 7.04043e-06, No Iterations 2
smoothSolver:  Solving for Uy, Initial residual = 0.0137805, Final residual = 7.18669e-06, No Iterations 2
smoothSolver:  Solving for Uz, Initial residual = 0.0242411, Final residual = 1.00049e-05, No Iterations 2
GAMG:  Solving for p, Initial residual = 0.0906371, Final residual = 0.00400099, No Iterations 2
GAMG:  Solving for p, Initial residual = 0.123496, Final residual = 0.00832755, No Iterations 1
GAMG:  Solving for p, Initial residual = 0.0454557, Final residual = 0.00206075, No Iterations 2
GAMG:  Solving for p, Initial residual = 0.032682, Final residual = 0.00220783, No Iterations 1
GAMG:  Solving for p, Initial residual = 0.0131186, Final residual = 0.000586584, No Iterations 2
time step continuity errors : sum local = 0.0974678, global = 0.0133741, cumulative = -5.51134
ExecutionTime = 2.6 s  ClockTime = 3 s

Time = 33

smoothSolver:  Solving for Ux, Initial residual = 0.0132359, Final residual = 6.67531e-06, No Iterations 2
smoothSolver:  Solving for Uy, Initial residual = 0.0132767, Final residual = 6.78606e-06, No Iterations 2
smoothSolver:  Solving for Uz, Initial residual = 0.0190517, Final residual = 8.34332e-06, No Iterations 2
GAMG:  Solving for p, Initial residual = 0.0969536, Final residual = 0.00484243, No Iterations 2
GAMG:  Solving for p, Initial residual = 0.103963, Final residual = 0.00691435, No Iterations 1
GAMG:  Solving for p, Initial residual = 0.0345213, Final residual = 0.00160085, No Iterations 2
GAMG:  Solving for p, Initial residual = 0.026169, Final residual = 0.00175791, No Iterations 1
GAMG:  Solving for p, Initial residual = 0.0105469, Final residual = 0.000479471, No Iterations 2
time step continuity errors : sum local = 0.122837, global = 0.018289, cumulative = -5.49305
ExecutionTime = 2.69 s  ClockTime = 3 s

Time = 34

smoothSolver:  Solving for Ux, Initial residual = 0.0130899, Final residual = 6.43187e-06, No Iterations 2
smoothSolver:  Solving for Uy, Initial residual = 0.0130785, Final residual = 6.5058e-06, No Iterations 2
smoothSolver:  Solving for Uz, Initial residual = 0.0142906, Final residual = 6.8351e-06, No Iterations 2
GAMG:  Solving for p, Initial residual = 0.113063, Final residual = 0.00558397, No Iterations 2
GAMG:  Solving for p, Initial residual = 0.081675, Final residual = 0.00544593, No Iterations 1
GAMG:  Solving for p, Initial residual = 0.0279053, Final residual = 0.00131271, No Iterations 2
GAMG:  Solving for p, Initial residual = 0.0224958, Final residual = 0.00153249, No Iterations 1
GAMG:  Solving for p, Initial residual = 0.00931867, Final residual = 0.000430562, No Iterations 2
time step continuity errors : sum local = 0.128426, global = 0.0184027, cumulative = -5.47465
ExecutionTime = 2.76 s  ClockTime = 3 s

Time = 35

smoothSolver:  Solving for Ux, Initial residual = 0.013061, Final residual = 6.24704e-06, No Iterations 2
smoothSolver:  Solving for Uy, Initial residual = 0.0130411, Final residual = 6.36951e-06, No Iterations 2
smoothSolver:  Solving for Uz, Initial residual = 0.0124825, Final residual = 6.06809e-06, No Iterations 2
GAMG:  Solving for p, Initial residual = 0.145581, Final residual = 0.00638534, No Iterations 2
GAMG:  Solving for p, Initial residual = 0.0645819, Final residual = 0.00438434, No Iterations 1
GAMG:  Solving for p, Initial residual = 0.0230327, Final residual = 0.00110204, No Iterations 2
GAMG:  Solving for p, Initial residual = 0.0194168, Final residual = 0.00135387, No Iterations 1
GAMG:  Solving for p, Initial residual = 0.00832847, Final residual = 0.000394087, No Iterations 2
time step continuity errors : sum local = 0.113874, global = 0.0149272, cumulative = -5.45972
ExecutionTime = 2.83 s  ClockTime = 3 s

Time = 36

smoothSolver:  Solving for Ux, Initial residual = 0.0129761, Final residual = 6.09017e-06, No Iterations 2
smoothSolver:  Solving for Uy, Initial residual = 0.012979, Final residual = 6.21518e-06, No Iterations 2
smoothSolver:  Solving for Uz, Initial residual = 0.012805, Final residual = 5.88518e-06, No Iterations 2
GAMG:  Solving for p, Initial residual = 0.14536, Final residual = 0.0130515, No Iterations 1
GAMG:  Solving for p, Initial residual = 0.0482512, Final residual = 0.00222745, No Iterations 2
GAMG:  Solving for p, Initial residual = 0.0312549, Final residual = 0.00224865, No Iterations 1
GAMG:  Solving for p, Initial residual = 0.0131276, Final residual = 0.000631402, No Iterations 2
GAMG:  Solving for p, Initial residual = 0.0115696, Final residual = 0.000854641, No Iterations 1
time step continuity errors : sum local = 0.206362, global = 0.0697971, cumulative = -5.38992
ExecutionTime = 2.91 s  ClockTime = 3 s

Time = 37

smoothSolver:  Solving for Ux, Initial residual = 0.0127159, Final residual = 5.9262e-06, No Iterations 2
smoothSolver:  Solving for Uy, Initial residual = 0.012764, Final residual = 6.02858e-06, No Iterations 2
smoothSolver:  Solving for Uz, Initial residual = 0.0133529, Final residual = 5.81803e-06, No Iterations 2
GAMG:  Solving for p, Initial residual = 0.123744, Final residual = 0.0117512, No Iterations 1
GAMG:  Solving for p, Initial residual = 0.0436634, Final residual = 0.00166628, No Iterations 2
GAMG:  Solving for p, Initial residual = 0.0252954, Final residual = 0.00205227, No Iterations 1
GAMG:  Solving for p, Initial residual = 0.0116807, Final residual = 0.000533092, No Iterations 2
GAMG:  Solving for p, Initial residual = 0.00926634, Final residual = 0.000766459, No Iterations 1
time step continuity errors : sum local = 0.130144, global = 0.0309397, cumulative = -5.35898
ExecutionTime = 2.98 s  ClockTime = 3 s

Time = 38

smoothSolver:  Solving for Ux, Initial residual = 0.012331, Final residual = 5.72582e-06, No Iterations 2
smoothSolver:  Solving for Uy, Initial residual = 0.0123979, Final residual = 5.86061e-06, No Iterations 2
smoothSolver:  Solving for Uz, Initial residual = 0.0132328, Final residual = 5.64682e-06, No Iterations 2
GAMG:  Solving for p, Initial residual = 0.117834, Final residual = 0.010494, No Iterations 1
GAMG:  Solving for p, Initial residual = 0.0476686, Final residual = 0.00222868, No Iterations 2
GAMG:  Solving for p, Initial residual = 0.036431, Final residual = 0.00254342, No Iterations 1
GAMG:  Solving for p, Initial residual = 0.014017, Final residual = 0.000628653, No Iterations 2
GAMG:  Solving for p, Initial residual = 0.01048, Final residual = 0.000771304, No Iterations 1
time step continuity errors : sum local = 0.107805, global = -0.0258664, cumulative = -5.38485
ExecutionTime = 3.05 s  ClockTime = 3 s

Time = 39

smoothSolver:  Solving for Ux, Initial residual = 0.0119031, Final residual = 5.50453e-06, No Iterations 2
smoothSolver:  Solving for Uy, Initial residual = 0.0119712, Final residual = 5.66018e-06, No Iterations 2
smoothSolver:  Solving for Uz, Initial residual = 0.0125198, Final residual = 5.33133e-06, No Iterations 2
GAMG:  Solving for p, Initial residual = 0.120673, Final residual = 0.0110779, No Iterations 1
GAMG:  Solving for p, Initial residual = 0.0554419, Final residual = 0.00278512, No Iterations 2
GAMG:  Solving for p, Initial residual = 0.0310537, Final residual = 0.00203451, No Iterations 1
GAMG:  Solving for p, Initial residual = 0.0113943, Final residual = 0.000524566, No Iterations 2
GAMG:  Solving for p, Initial residual = 0.00960261, Final residual = 0.000647827, No Iterations 1
time step continuity errors : sum local = 0.129646, global = -0.0443908, cumulative = -5.42924
ExecutionTime = 3.13 s  ClockTime = 3 s

Time = 40

smoothSolver:  Solving for Ux, Initial residual = 0.0115095, Final residual = 5.3152e-06, No Iterations 2
smoothSolver:  Solving for Uy, Initial residual = 0.0115624, Final residual = 5.48911e-06, No Iterations 2
smoothSolver:  Solving for Uz, Initial residual = 0.0116288, Final residual = 5.01947e-06, No Iterations 2
GAMG:  Solving for p, Initial residual = 0.133921, Final residual = 0.0129865, No Iterations 1
GAMG:  Solving for p, Initial residual = 0.0458197, Final residual = 0.00232914, No Iterations 2
GAMG:  Solving for p, Initial residual = 0.0270495, Final residual = 0.00178471, No Iterations 1
GAMG:  Solving for p, Initial residual = 0.0101691, Final residual = 0.000483246, No Iterations 2
GAMG:  Solving for p, Initial residual = 0.00911744, Final residual = 0.00061886, No Iterations 1
time step continuity errors : sum local = 0.149039, global = -0.0531278, cumulative = -5.48237
ExecutionTime = 3.2 s  ClockTime = 3 s

Time = 41

smoothSolver:  Solving for Ux, Initial residual = 0.0111835, Final residual = 5.14861e-06, No Iterations 2
smoothSolver:  Solving for Uy, Initial residual = 0.011209, Final residual = 5.33664e-06, No Iterations 2
smoothSolver:  Solving for Uz, Initial residual = 0.011092, Final residual = 4.82748e-06, No Iterations 2
GAMG:  Solving for p, Initial residual = 0.115014, Final residual = 0.0107328, No Iterations 1
GAMG:  Solving for p, Initial residual = 0.037365, Final residual = 0.00186764, No Iterations 2
GAMG:  Solving for p, Initial residual = 0.0236008, Final residual = 0.00158555, No Iterations 1
GAMG:  Solving for p, Initial residual = 0.00913494, Final residual = 0.000437167, No Iterations 2
GAMG:  Solving for p, Initial residual = 0.0083302, Final residual = 0.000575911, No Iterations 1
time step continuity errors : sum local = 0.147686, global = -0.0530919, cumulative = -5.53546
ExecutionTime = 3.27 s  ClockTime = 3 s

Time = 42

smoothSolver:  Solving for Ux, Initial residual = 0.0109033, Final residual = 4.98956e-06, No Iterations 2
smoothSolver:  Solving for Uy, Initial residual = 0.0109003, Final residual = 5.16954e-06, No Iterations 2
smoothSolver:  Solving for Uz, Initial residual = 0.0109892, Final residual = 4.7575e-06, No Iterations 2
GAMG:  Solving for p, Initial residual = 0.093251, Final residual = 0.0077772, No Iterations 1
GAMG:  Solving for p, Initial residual = 0.02989, Final residual = 0.00141411, No Iterations 2
GAMG:  Solving for p, Initial residual = 0.0201246, Final residual = 0.00138625, No Iterations 1
GAMG:  Solving for p, Initial residual = 0.00801811, Final residual = 0.000385254, No Iterations 2
GAMG:  Solving for p, Initial residual = 0.00729739, Final residual = 0.000519071, No Iterations 1
time step continuity errors : sum local = 0.128892, global = -0.0462155, cumulative = -5.58168
ExecutionTime = 3.34 s  ClockTime = 3 s

Time = 43

smoothSolver:  Solving for Ux, Initial residual = 0.0106529, Final residual = 4.86232e-06, No Iterations 2
smoothSolver:  Solving for Uy, Initial residual = 0.0106135, Final residual = 5.03593e-06, No Iterations 2
smoothSolver:  Solving for Uz, Initial residual = 0.0110572, Final residual = 4.75483e-06, No Iterations 2
GAMG:  Solving for p, Initial residual = 0.0812098, Final residual = 0.00657263, No Iterations 1
GAMG:  Solving for p, Initial residual = 0.0251495, Final residual = 0.00103444, No Iterations 2
GAMG:  Solving for p, Initial residual = 0.0161557, Final residual = 0.00115236, No Iterations 1
GAMG:  Solving for p, Initial residual = 0.00677914, Final residual = 0.000323625, No Iterations 2
GAMG:  Solving for p, Initial residual = 0.00602791, Final residual = 0.000445217, No Iterations 1
time step continuity errors : sum local = 0.099012, global = -0.0337389, cumulative = -5.61542
ExecutionTime = 3.41 s  ClockTime = 3 s

Time = 44

smoothSolver:  Solving for Ux, Initial residual = 0.0104096, Final residual = 4.71366e-06, No Iterations 2
smoothSolver:  Solving for Uy, Initial residual = 0.0103361, Final residual = 4.87105e-06, No Iterations 2
smoothSolver:  Solving for Uz, Initial residual = 0.0109894, Final residual = 4.68902e-06, No Iterations 2
GAMG:  Solving for p, Initial residual = 0.0748619, Final residual = 0.00612439, No Iterations 1
GAMG:  Solving for p, Initial residual = 0.0234384, Final residual = 0.000826966, No Iterations 2
GAMG:  Solving for p, Initial residual = 0.0128067, Final residual = 0.000987073, No Iterations 1
GAMG:  Solving for p, Initial residual = 0.00563654, Final residual = 0.000241165, No Iterations 2
GAMG:  Solving for p, Initial residual = 0.00424769, Final residual = 0.000343363, No Iterations 1
time step continuity errors : sum local = 0.0653461, global = -0.012758, cumulative = -5.62817
ExecutionTime = 3.49 s  ClockTime = 3 s

Time = 45

smoothSolver:  Solving for Ux, Initial residual = 0.0101981, Final residual = 4.60854e-06, No Iterations 2
smoothSolver:  Solving for Uy, Initial residual = 0.0100913, Final residual = 4.71536e-06, No Iterations 2
smoothSolver:  Solving for Uz, Initial residual = 0.0106759, Final residual = 4.55171e-06, No Iterations 2
GAMG:  Solving for p, Initial residual = 0.0724491, Final residual = 0.00558359, No Iterations 1
GAMG:  Solving for p, Initial residual = 0.023332, Final residual = 0.00231349, No Iterations 1
GAMG:  Solving for p, Initial residual = 0.0126632, Final residual = 0.000555589, No Iterations 2
GAMG:  Solving for p, Initial residual = 0.0101225, Final residual = 0.000684243, No Iterations 1
GAMG:  Solving for p, Initial residual = 0.00418597, Final residual = 0.000175416, No Iterations 2
time step continuity errors : sum local = 0.0283962, global = 0.00323748, cumulative = -5.62494
ExecutionTime = 3.56 s  ClockTime = 3 s

Time = 46

smoothSolver:  Solving for Ux, Initial residual = 0.0100225, Final residual = 4.49386e-06, No Iterations 2
smoothSolver:  Solving for Uy, Initial residual = 0.0098924, Final residual = 4.56707e-06, No Iterations 2
smoothSolver:  Solving for Uz, Initial residual = 0.0101939, Final residual = 4.35826e-06, No Iterations 2
GAMG:  Solving for p, Initial residual = 0.072355, Final residual = 0.00532545, No Iterations 1
GAMG:  Solving for p, Initial residual = 0.024979, Final residual = 0.00111724, No Iterations 2
GAMG:  Solving for p, Initial residual = 0.0225412, Final residual = 0.00147104, No Iterations 1
GAMG:  Solving for p, Initial residual = 0.00860114, Final residual = 0.00036686, No Iterations 2
GAMG:  Solving for p, Initial residual = 0.0077597, Final residual = 0.000526637, No Iterations 1
time step continuity errors : sum local = 0.0700163, global = 0.0237929, cumulative = -5.60114
ExecutionTime = 3.63 s  ClockTime = 4 s

Time = 47

smoothSolver:  Solving for Ux, Initial residual = 0.00987699, Final residual = 4.40292e-06, No Iterations 2
smoothSolver:  Solving for Uy, Initial residual = 0.00973415, Final residual = 4.46853e-06, No Iterations 2
smoothSolver:  Solving for Uz, Initial residual = 0.00971267, Final residual = 4.17687e-06, No Iterations 2
GAMG:  Solving for p, Initial residual = 0.0742803, Final residual = 0.0054403, No Iterations 1
GAMG:  Solving for p, Initial residual = 0.0266358, Final residual = 0.00121965, No Iterations 2
GAMG:  Solving for p, Initial residual = 0.0259498, Final residual = 0.00170562, No Iterations 1
GAMG:  Solving for p, Initial residual = 0.0100757, Final residual = 0.000446162, No Iterations 2
GAMG:  Solving for p, Initial residual = 0.00931837, Final residual = 0.000638674, No Iterations 1
time step continuity errors : sum local = 0.0785138, global = 0.0280769, cumulative = -5.57307
ExecutionTime = 3.71 s  ClockTime = 4 s

Time = 48

smoothSolver:  Solving for Ux, Initial residual = 0.00974475, Final residual = 4.32518e-06, No Iterations 2
smoothSolver:  Solving for Uy, Initial residual = 0.00960996, Final residual = 4.38014e-06, No Iterations 2
smoothSolver:  Solving for Uz, Initial residual = 0.00934915, Final residual = 4.01852e-06, No Iterations 2
GAMG:  Solving for p, Initial residual = 0.0772591, Final residual = 0.0055719, No Iterations 1
GAMG:  Solving for p, Initial residual = 0.0261707, Final residual = 0.00116912, No Iterations 2
GAMG:  Solving for p, Initial residual = 0.0249856, Final residual = 0.00167822, No Iterations 1
GAMG:  Solving for p, Initial residual = 0.00994848, Final residual = 0.00044785, No Iterations 2
GAMG:  Solving for p, Initial residual = 0.00882643, Final residual = 0.000616214, No Iterations 1
time step continuity errors : sum local = 0.0780744, global = 0.0280414, cumulative = -5.54503
ExecutionTime = 3.78 s  ClockTime = 4 s

Time = 49

smoothSolver:  Solving for Ux, Initial residual = 0.00960965, Final residual = 4.26521e-06, No Iterations 2
smoothSolver:  Solving for Uy, Initial residual = 0.00949035, Final residual = 4.30775e-06, No Iterations 2
smoothSolver:  Solving for Uz, Initial residual = 0.00912618, Final residual = 3.90785e-06, No Iterations 2
GAMG:  Solving for p, Initial residual = 0.0807249, Final residual = 0.00578399, No Iterations 1
GAMG:  Solving for p, Initial residual = 0.0246787, Final residual = 0.00100733, No Iterations 2
GAMG:  Solving for p, Initial residual = 0.0205612, Final residual = 0.00141721, No Iterations 1
GAMG:  Solving for p, Initial residual = 0.00854896, Final residual = 0.000383539, No Iterations 2
GAMG:  Solving for p, Initial residual = 0.00788255, Final residual = 0.000561502, No Iterations 1
time step continuity errors : sum local = 0.0686443, global = 0.0240247, cumulative = -5.521
ExecutionTime = 3.86 s  ClockTime = 4 s

Time = 50

smoothSolver:  Solving for Ux, Initial residual = 0.00945676, Final residual = 4.20984e-06, No Iterations 2
smoothSolver:  Solving for Uy, Initial residual = 0.00935179, Final residual = 4.24799e-06, No Iterations 2
smoothSolver:  Solving for Uz, Initial residual = 0.00899801, Final residual = 3.80913e-06, No Iterations 2
GAMG:  Solving for p, Initial residual = 0.0829799, Final residual = 0.00595255, No Iterations 1
GAMG:  Solving for p, Initial residual = 0.0239839, Final residual = 0.00231859, No Iterations 1
GAMG:  Solving for p, Initial residual = 0.0118498, Final residual = 0.000503104, No Iterations 2
GAMG:  Solving for p, Initial residual = 0.0094876, Final residual = 0.000694099, No Iterations 1
GAMG:  Solving for p, Initial residual = 0.00436345, Final residual = 0.000197346, No Iterations 2
time step continuity errors : sum local = 0.0257534, global = 0.00336987, cumulative = -5.51763
ExecutionTime = 3.93 s  ClockTime = 4 s

Time = 51

smoothSolver:  Solving for Ux, Initial residual = 0.00929152, Final residual = 4.13188e-06, No Iterations 2
smoothSolver:  Solving for Uy, Initial residual = 0.00918861, Final residual = 4.18066e-06, No Iterations 2
smoothSolver:  Solving for Uz, Initial residual = 0.00890654, Final residual = 3.75493e-06, No Iterations 2
GAMG:  Solving for p, Initial residual = 0.0832481, Final residual = 0.00578849, No Iterations 1
GAMG:  Solving for p, Initial residual = 0.0234717, Final residual = 0.00228821, No Iterations 1
GAMG:  Solving for p, Initial residual = 0.010162, Final residual = 0.000409034, No Iterations 2
GAMG:  Solving for p, Initial residual = 0.00665152, Final residual = 0.000526641, No Iterations 1
GAMG:  Solving for p, Initial residual = 0.00317114, Final residual = 0.000130797, No Iterations 2
time step continuity errors : sum local = 0.0185231, global = 0.00129106, cumulative = -5.51634
ExecutionTime = 4.01 s  ClockTime = 4 s

Time = 52

smoothSolver:  Solving for Ux, Initial residual = 0.00912715, Final residual = 4.0574e-06, No Iterations 2
smoothSolver:  Solving for Uy, Initial residual = 0.00902107, Final residual = 4.1118e-06, No Iterations 2
smoothSolver:  Solving for Uz, Initial residual = 0.00880676, Final residual = 3.68452e-06, No Iterations 2
GAMG:  Solving for p, Initial residual = 0.0812282, Final residual = 0.00541337, No Iterations 1
GAMG:  Solving for p, Initial residual = 0.0225161, Final residual = 0.00202584, No Iterations 1
GAMG:  Solving for p, Initial residual = 0.00985133, Final residual = 0.000425251, No Iterations 2
GAMG:  Solving for p, Initial residual = 0.00687418, Final residual = 0.000483459, No Iterations 1
GAMG:  Solving for p, Initial residual = 0.00293743, Final residual = 0.000122851, No Iterations 2
time step continuity errors : sum local = 0.0187514, global = -0.00197294, cumulative = -5.51831
ExecutionTime = 4.08 s  ClockTime = 4 s

Time = 53

smoothSolver:  Solving for Ux, Initial residual = 0.00896375, Final residual = 3.96731e-06, No Iterations 2
smoothSolver:  Solving for Uy, Initial residual = 0.00885596, Final residual = 4.0456e-06, No Iterations 2
smoothSolver:  Solving for Uz, Initial residual = 0.00869867, Final residual = 3.62148e-06, No Iterations 2
GAMG:  Solving for p, Initial residual = 0.0776908, Final residual = 0.00499845, No Iterations 1
GAMG:  Solving for p, Initial residual = 0.0213078, Final residual = 0.00191927, No Iterations 1
GAMG:  Solving for p, Initial residual = 0.0099445, Final residual = 0.000435307, No Iterations 2
GAMG:  Solving for p, Initial residual = 0.00711437, Final residual = 0.000479835, No Iterations 1
GAMG:  Solving for p, Initial residual = 0.00294519, Final residual = 0.000128578, No Iterations 2
time step continuity errors : sum local = 0.020939, global = -0.00277369, cumulative = -5.52109
ExecutionTime = 4.15 s  ClockTime = 4 s

Time = 54

smoothSolver:  Solving for Ux, Initial residual = 0.00880397, Final residual = 3.91838e-06, No Iterations 2
smoothSolver:  Solving for Uy, Initial residual = 0.00870349, Final residual = 3.97531e-06, No Iterations 2
smoothSolver:  Solving for Uz, Initial residual = 0.00858714, Final residual = 3.57085e-06, No Iterations 2
GAMG:  Solving for p, Initial residual = 0.0734452, Final residual = 0.00465485, No Iterations 1
GAMG:  Solving for p, Initial residual = 0.0200901, Final residual = 0.0018621, No Iterations 1
GAMG:  Solving for p, Initial residual = 0.00967483, Final residual = 0.000429053, No Iterations 2
GAMG:  Solving for p, Initial residual = 0.00698295, Final residual = 0.000475778, No Iterations 1
GAMG:  Solving for p, Initial residual = 0.00291375, Final residual = 0.000132087, No Iterations 2
time step continuity errors : sum local = 0.0223627, global = -0.00325137, cumulative = -5.52434
ExecutionTime = 4.22 s  ClockTime = 4 s

Time = 55

smoothSolver:  Solving for Ux, Initial residual = 0.00865225, Final residual = 3.84743e-06, No Iterations 2
smoothSolver:  Solving for Uy, Initial residual = 0.00856234, Final residual = 3.89104e-06, No Iterations 2
smoothSolver:  Solving for Uz, Initial residual = 0.00846711, Final residual = 3.52453e-06, No Iterations 2
GAMG:  Solving for p, Initial residual = 0.0693543, Final residual = 0.00437514, No Iterations 1
GAMG:  Solving for p, Initial residual = 0.0189836, Final residual = 0.00173544, No Iterations 1
GAMG:  Solving for p, Initial residual = 0.00897972, Final residual = 0.00039609, No Iterations 2
GAMG:  Solving for p, Initial residual = 0.00651096, Final residual = 0.000452004, No Iterations 1
GAMG:  Solving for p, Initial residual = 0.00277869, Final residual = 0.000127963, No Iterations 2
time step continuity errors : sum local = 0.021935, global = -0.00316175, cumulative = -5.5275
ExecutionTime = 4.29 s  ClockTime = 4 s

Time = 56

smoothSolver:  Solving for Ux, Initial residual = 0.00849954, Final residual = 3.80438e-06, No Iterations 2
smoothSolver:  Solving for Uy, Initial residual = 0.00843435, Final residual = 3.84956e-06, No Iterations 2
smoothSolver:  Solving for Uz, Initial residual = 0.00834634, Final residual = 3.48425e-06, No Iterations 2
GAMG:  Solving for p, Initial residual = 0.0661865, Final residual = 0.00415876, No Iterations 1
GAMG:  Solving for p, Initial residual = 0.0181231, Final residual = 0.00158886, No Iterations 1
GAMG:  Solving for p, Initial residual = 0.00806525, Final residual = 0.000342796, No Iterations 2
GAMG:  Solving for p, Initial residual = 0.00577864, Final residual = 0.000408604, No Iterations 1
GAMG:  Solving for p, Initial residual = 0.00254934, Final residual = 0.000117019, No Iterations 2
time step continuity errors : sum local = 0.0198469, global = -0.00261835, cumulative = -5.53012
ExecutionTime = 4.36 s  ClockTime = 4 s

Time = 57

smoothSolver:  Solving for Ux, Initial residual = 0.00835142, Final residual = 3.72284e-06, No Iterations 2
smoothSolver:  Solving for Uy, Initial residual = 0.00831135, Final residual = 3.80022e-06, No Iterations 2
smoothSolver:  Solving for Uz, Initial residual = 0.00821404, Final residual = 3.43227e-06, No Iterations 2
GAMG:  Solving for p, Initial residual = 0.063825, Final residual = 0.00398121, No Iterations 1
GAMG:  Solving for p, Initial residual = 0.0175082, Final residual = 0.00151419, No Iterations 1
GAMG:  Solving for p, Initial residual = 0.00729999, Final residual = 0.000285008, No Iterations 2
GAMG:  Solving for p, Initial residual = 0.00485263, Final residual = 0.000351759, No Iterations 1
GAMG:  Solving for p, Initial residual = 0.00224411, Final residual = 0.000100104, No Iterations 2
time step continuity errors : sum local = 0.0165576, global = -0.00185969, cumulative = -5.53198
ExecutionTime = 4.44 s  ClockTime = 4 s

Time = 58

smoothSolver:  Solving for Ux, Initial residual = 0.00820986, Final residual = 3.6682e-06, No Iterations 2
smoothSolver:  Solving for Uy, Initial residual = 0.00819924, Final residual = 3.73996e-06, No Iterations 2
smoothSolver:  Solving for Uz, Initial residual = 0.00807568, Final residual = 3.36866e-06, No Iterations 2
GAMG:  Solving for p, Initial residual = 0.0625905, Final residual = 0.00385854, No Iterations 1
GAMG:  Solving for p, Initial residual = 0.0171125, Final residual = 0.00146005, No Iterations 1
GAMG:  Solving for p, Initial residual = 0.00700534, Final residual = 0.000230963, No Iterations 2
GAMG:  Solving for p, Initial residual = 0.00417697, Final residual = 0.000306177, No Iterations 1
GAMG:  Solving for p, Initial residual = 0.00198788, Final residual = 7.51359e-05, No Iterations 2
time step continuity errors : sum local = 0.0121022, global = -0.000333137, cumulative = -5.53231
ExecutionTime = 4.52 s  ClockTime = 4 s

Time = 59

smoothSolver:  Solving for Ux, Initial residual = 0.00807486, Final residual = 3.59779e-06, No Iterations 2
smoothSolver:  Solving for Uy, Initial residual = 0.0080909, Final residual = 3.68825e-06, No Iterations 2
smoothSolver:  Solving for Uz, Initial residual = 0.00793096, Final residual = 3.29526e-06, No Iterations 2
GAMG:  Solving for p, Initial residual = 0.0618141, Final residual = 0.00376417, No Iterations 1
GAMG:  Solving for p, Initial residual = 0.0168401, Final residual = 0.00139715, No Iterations 1
GAMG:  Solving for p, Initial residual = 0.0069053, Final residual = 0.000664741, No Iterations 1
GAMG:  Solving for p, Initial residual = 0.00373253, Final residual = 0.000159008, No Iterations 2
GAMG:  Solving for p, Initial residual = 0.00280398, Final residual = 0.000196022, No Iterations 1
time step continuity errors : sum local = 0.0306739, global = 0.00548964, cumulative = -5.52682
ExecutionTime = 4.58 s  ClockTime = 5 s

Time = 60

smoothSolver:  Solving for Ux, Initial residual = 0.00794806, Final residual = 3.53429e-06, No Iterations 2
smoothSolver:  Solving for Uy, Initial residual = 0.00799202, Final residual = 3.63038e-06, No Iterations 2
smoothSolver:  Solving for Uz, Initial residual = 0.00778842, Final residual = 3.2234e-06, No Iterations 2
GAMG:  Solving for p, Initial residual = 0.0612673, Final residual = 0.00371342, No Iterations 1
GAMG:  Solving for p, Initial residual = 0.0166763, Final residual = 0.00136915, No Iterations 1
GAMG:  Solving for p, Initial residual = 0.00696422, Final residual = 0.000693493, No Iterations 1
GAMG:  Solving for p, Initial residual = 0.0040577, Final residual = 0.000179746, No Iterations 2
GAMG:  Solving for p, Initial residual = 0.00318651, Final residual = 0.000220106, No Iterations 1
time step continuity errors : sum local = 0.0334821, global = 0.00874173, cumulative = -5.51808
ExecutionTime = 4.65 s  ClockTime = 5 s

Time = 61

smoothSolver:  Solving for Ux, Initial residual = 0.00783892, Final residual = 3.48426e-06, No Iterations 2
smoothSolver:  Solving for Uy, Initial residual = 0.00789771, Final residual = 3.56997e-06, No Iterations 2
smoothSolver:  Solving for Uz, Initial residual = 0.007653, Final residual = 3.16328e-06, No Iterations 2
GAMG:  Solving for p, Initial residual = 0.061031, Final residual = 0.00371109, No Iterations 1
GAMG:  Solving for p, Initial residual = 0.0166169, Final residual = 0.00139116, No Iterations 1
GAMG:  Solving for p, Initial residual = 0.00704222, Final residual = 0.00029248, No Iterations 2
GAMG:  Solving for p, Initial residual = 0.00528184, Final residual = 0.000364124, No Iterations 1
GAMG:  Solving for p, Initial residual = 0.00230286, Final residual = 0.000100612, No Iterations 2
time step continuity errors : sum local = 0.0150895, global = 0.00200443, cumulative = -5.51607
ExecutionTime = 4.72 s  ClockTime = 5 s

Time = 62

smoothSolver:  Solving for Ux, Initial residual = 0.00773379, Final residual = 3.4366e-06, No Iterations 2
smoothSolver:  Solving for Uy, Initial residual = 0.00781284, Final residual = 3.53344e-06, No Iterations 2
smoothSolver:  Solving for Uz, Initial residual = 0.0075278, Final residual = 3.11613e-06, No Iterations 2
GAMG:  Solving for p, Initial residual = 0.0611027, Final residual = 0.00370635, No Iterations 1
GAMG:  Solving for p, Initial residual = 0.0165586, Final residual = 0.00141705, No Iterations 1
GAMG:  Solving for p, Initial residual = 0.00693556, Final residual = 0.000284716, No Iterations 2
GAMG:  Solving for p, Initial residual = 0.00512773, Final residual = 0.000360502, No Iterations 1
GAMG:  Solving for p, Initial residual = 0.00227526, Final residual = 9.93089e-05, No Iterations 2
time step continuity errors : sum local = 0.0148241, global = 0.00195702, cumulative = -5.51412
ExecutionTime = 4.79 s  ClockTime = 5 s

Time = 63

smoothSolver:  Solving for Ux, Initial residual = 0.00762654, Final residual = 3.39098e-06, No Iterations 2
smoothSolver:  Solving for Uy, Initial residual = 0.00772663, Final residual = 3.48559e-06, No Iterations 2
smoothSolver:  Solving for Uz, Initial residual = 0.00741272, Final residual = 3.07172e-06, No Iterations 2
GAMG:  Solving for p, Initial residual = 0.0612664, Final residual = 0.00369616, No Iterations 1
GAMG:  Solving for p, Initial residual = 0.0165973, Final residual = 0.00144322, No Iterations 1
GAMG:  Solving for p, Initial residual = 0.00677655, Final residual = 0.000267578, No Iterations 2
GAMG:  Solving for p, Initial residual = 0.00465951, Final residual = 0.000338141, No Iterations 1
GAMG:  Solving for p, Initial residual = 0.00213021, Final residual = 9.20076e-05, No Iterations 2
time step continuity errors : sum local = 0.0137883, global = 0.0017108, cumulative = -5.51241
ExecutionTime = 4.87 s  ClockTime = 5 s

Time = 64

smoothSolver:  Solving for Ux, Initial residual = 0.0075275, Final residual = 3.33268e-06, No Iterations 2
smoothSolver:  Solving for Uy, Initial residual = 0.00764002, Final residual = 3.44351e-06, No Iterations 2
smoothSolver:  Solving for Uz, Initial residual = 0.00730314, Final residual = 3.02761e-06, No Iterations 2
GAMG:  Solving for p, Initial residual = 0.0609687, Final residual = 0.00362806, No Iterations 1
GAMG:  Solving for p, Initial residual = 0.0164762, Final residual = 0.00142802, No Iterations 1
GAMG:  Solving for p, Initial residual = 0.00660743, Final residual = 0.00024187, No Iterations 2
GAMG:  Solving for p, Initial residual = 0.00405022, Final residual = 0.000305082, No Iterations 1
GAMG:  Solving for p, Initial residual = 0.0019199, Final residual = 8.02041e-05, No Iterations 2
time step continuity errors : sum local = 0.012151, global = 0.00141122, cumulative = -5.511
ExecutionTime = 4.94 s  ClockTime = 5 s

Time = 65

smoothSolver:  Solving for Ux, Initial residual = 0.0074273, Final residual = 3.28564e-06, No Iterations 2
smoothSolver:  Solving for Uy, Initial residual = 0.00755245, Final residual = 3.39141e-06, No Iterations 2
smoothSolver:  Solving for Uz, Initial residual = 0.00720066, Final residual = 2.99617e-06, No Iterations 2
GAMG:  Solving for p, Initial residual = 0.0602991, Final residual = 0.00354237, No Iterations 1
GAMG:  Solving for p, Initial residual = 0.0162515, Final residual = 0.00138379, No Iterations 1
GAMG:  Solving for p, Initial residual = 0.00644897, Final residual = 0.000222466, No Iterations 2
GAMG:  Solving for p, Initial residual = 0.00364501, Final residual = 0.000281989, No Iterations 1
GAMG:  Solving for p, Initial residual = 0.00175668, Final residual = 6.61922e-05, No Iterations 2
time step continuity errors : sum local = 0.0101386, global = 0.000870676, cumulative = -5.51013
ExecutionTime = 5.01 s  ClockTime = 5 s

Time = 66

smoothSolver:  Solving for Ux, Initial residual = 0.00733402, Final residual = 3.23275e-06, No Iterations 2
smoothSolver:  Solving for Uy, Initial residual = 0.00747557, Final residual = 3.3619e-06, No Iterations 2
smoothSolver:  Solving for Uz, Initial residual = 0.0071005, Final residual = 2.953e-06, No Iterations 2
GAMG:  Solving for p, Initial residual = 0.0596839, Final residual = 0.00347523, No Iterations 1
GAMG:  Solving for p, Initial residual = 0.0160597, Final residual = 0.00133131, No Iterations 1
GAMG:  Solving for p, Initial residual = 0.00633488, Final residual = 0.000212064, No Iterations 2
GAMG:  Solving for p, Initial residual = 0.00359931, Final residual = 0.000267376, No Iterations 1
GAMG:  Solving for p, Initial residual = 0.00170523, Final residual = 6.59812e-05, No Iterations 2
time step continuity errors : sum local = 0.0101926, global = -0.00194469, cumulative = -5.51207
ExecutionTime = 5.09 s  ClockTime = 5 s

Time = 67

smoothSolver:  Solving for Ux, Initial residual = 0.00723919, Final residual = 3.18231e-06, No Iterations 2
smoothSolver:  Solving for Uy, Initial residual = 0.00739027, Final residual = 3.2974e-06, No Iterations 2
smoothSolver:  Solving for Uz, Initial residual = 0.00699619, Final residual = 2.90643e-06, No Iterations 2
GAMG:  Solving for p, Initial residual = 0.0592464, Final residual = 0.00344089, No Iterations 1
GAMG:  Solving for p, Initial residual = 0.0159076, Final residual = 0.00130127, No Iterations 1
GAMG:  Solving for p, Initial residual = 0.00625644, Final residual = 0.000618836, No Iterations 1
GAMG:  Solving for p, Initial residual = 0.003234, Final residual = 0.00014479, No Iterations 2
GAMG:  Solving for p, Initial residual = 0.00234145, Final residual = 0.000171727, No Iterations 1
time step continuity errors : sum local = 0.0268323, global = -0.0083538, cumulative = -5.52042
ExecutionTime = 5.16 s  ClockTime = 5 s

Time = 68

smoothSolver:  Solving for Ux, Initial residual = 0.00715533, Final residual = 3.13042e-06, No Iterations 2
smoothSolver:  Solving for Uy, Initial residual = 0.00730796, Final residual = 3.23351e-06, No Iterations 2
smoothSolver:  Solving for Uz, Initial residual = 0.00688753, Final residual = 2.83752e-06, No Iterations 2
GAMG:  Solving for p, Initial residual = 0.0585147, Final residual = 0.00342005, No Iterations 1
GAMG:  Solving for p, Initial residual = 0.0157159, Final residual = 0.00128861, No Iterations 1
GAMG:  Solving for p, Initial residual = 0.00617949, Final residual = 0.000239944, No Iterations 2
GAMG:  Solving for p, Initial residual = 0.00378973, Final residual = 0.000276573, No Iterations 1
GAMG:  Solving for p, Initial residual = 0.00173064, Final residual = 7.77705e-05, No Iterations 2
time step continuity errors : sum local = 0.0122403, global = -0.00152126, cumulative = -5.52194
ExecutionTime = 5.23 s  ClockTime = 5 s

Time = 69

smoothSolver:  Solving for Ux, Initial residual = 0.0070694, Final residual = 3.08447e-06, No Iterations 2
smoothSolver:  Solving for Uy, Initial residual = 0.00722826, Final residual = 3.20424e-06, No Iterations 2
smoothSolver:  Solving for Uz, Initial residual = 0.00678275, Final residual = 2.80097e-06, No Iterations 2
GAMG:  Solving for p, Initial residual = 0.0576448, Final residual = 0.00338695, No Iterations 1
GAMG:  Solving for p, Initial residual = 0.0154982, Final residual = 0.00127802, No Iterations 1
GAMG:  Solving for p, Initial residual = 0.0060636, Final residual = 0.000238184, No Iterations 2
GAMG:  Solving for p, Initial residual = 0.00372639, Final residual = 0.000277494, No Iterations 1
GAMG:  Solving for p, Initial residual = 0.00171096, Final residual = 7.82131e-05, No Iterations 2
time step continuity errors : sum local = 0.0123995, global = -0.00154897, cumulative = -5.52349
ExecutionTime = 5.29 s  ClockTime = 5 s

Time = 70

smoothSolver:  Solving for Ux, Initial residual = 0.00699284, Final residual = 3.0421e-06, No Iterations 2
smoothSolver:  Solving for Uy, Initial residual = 0.00715137, Final residual = 3.18223e-06, No Iterations 2
smoothSolver:  Solving for Uz, Initial residual = 0.00668142, Final residual = 2.76128e-06, No Iterations 2
GAMG:  Solving for p, Initial residual = 0.0571011, Final residual = 0.00333362, No Iterations 1
GAMG:  Solving for p, Initial residual = 0.0153666, Final residual = 0.00126866, No Iterations 1
GAMG:  Solving for p, Initial residual = 0.0059716, Final residual = 0.000225761, No Iterations 2
GAMG:  Solving for p, Initial residual = 0.00357653, Final residual = 0.000270991, No Iterations 1
GAMG:  Solving for p, Initial residual = 0.00166665, Final residual = 7.59752e-05, No Iterations 2
time step continuity errors : sum local = 0.0120202, global = -0.00153756, cumulative = -5.52503
ExecutionTime = 5.37 s  ClockTime = 5 s

Time = 71

smoothSolver:  Solving for Ux, Initial residual = 0.00691898, Final residual = 3.01789e-06, No Iterations 2
smoothSolver:  Solving for Uy, Initial residual = 0.00707898, Final residual = 3.14149e-06, No Iterations 2
smoothSolver:  Solving for Uz, Initial residual = 0.00657607, Final residual = 2.71081e-06, No Iterations 2
GAMG:  Solving for p, Initial residual = 0.0564409, Final residual = 0.0032878, No Iterations 1
GAMG:  Solving for p, Initial residual = 0.0152264, Final residual = 0.00125643, No Iterations 1
GAMG:  Solving for p, Initial residual = 0.00589331, Final residual = 0.000208202, No Iterations 2
GAMG:  Solving for p, Initial residual = 0.00338804, Final residual = 0.000259799, No Iterations 1
GAMG:  Solving for p, Initial residual = 0.0016067, Final residual = 7.04851e-05, No Iterations 2
time step continuity errors : sum local = 0.0111291, global = -0.00162429, cumulative = -5.52666
ExecutionTime = 5.44 s  ClockTime = 5 s

Time = 72

smoothSolver:  Solving for Ux, Initial residual = 0.00684904, Final residual = 2.97435e-06, No Iterations 2
smoothSolver:  Solving for Uy, Initial residual = 0.00700113, Final residual = 3.09219e-06, No Iterations 2
smoothSolver:  Solving for Uz, Initial residual = 0.00647215, Final residual = 2.6564e-06, No Iterations 2
GAMG:  Solving for p, Initial residual = 0.0559463, Final residual = 0.00324811, No Iterations 1
GAMG:  Solving for p, Initial residual = 0.0151035, Final residual = 0.00123713, No Iterations 1
GAMG:  Solving for p, Initial residual = 0.00582778, Final residual = 0.00019131, No Iterations 2
GAMG:  Solving for p, Initial residual = 0.00325047, Final residual = 0.000247036, No Iterations 1
GAMG:  Solving for p, Initial residual = 0.00154672, Final residual = 5.98325e-05, No Iterations 2
time step continuity errors : sum local = 0.00943293, global = -0.0016842, cumulative = -5.52834
ExecutionTime = 5.52 s  ClockTime = 5 s

Time = 73

smoothSolver:  Solving for Ux, Initial residual = 0.00678746, Final residual = 2.95514e-06, No Iterations 2
smoothSolver:  Solving for Uy, Initial residual = 0.00692752, Final residual = 3.05358e-06, No Iterations 2
smoothSolver:  Solving for Uz, Initial residual = 0.00636963, Final residual = 2.60704e-06, No Iterations 2
GAMG:  Solving for p, Initial residual = 0.0556161, Final residual = 0.0032426, No Iterations 1
GAMG:  Solving for p, Initial residual = 0.0150067, Final residual = 0.0012264, No Iterations 1
GAMG:  Solving for p, Initial residual = 0.00579488, Final residual = 0.000579391, No Iterations 1
GAMG:  Solving for p, Initial residual = 0.00290716, Final residual = 0.000109511, No Iterations 2
GAMG:  Solving for p, Initial residual = 0.00190403, Final residual = 0.000145447, No Iterations 1
time step continuity errors : sum local = 0.0228606, global = -0.00156287, cumulative = -5.5299
ExecutionTime = 5.59 s  ClockTime = 6 s

Time = 74

smoothSolver:  Solving for Ux, Initial residual = 0.00672627, Final residual = 2.90518e-06, No Iterations 2
smoothSolver:  Solving for Uy, Initial residual = 0.00684685, Final residual = 3.01613e-06, No Iterations 2
smoothSolver:  Solving for Uz, Initial residual = 0.00626997, Final residual = 2.56315e-06, No Iterations 2
GAMG:  Solving for p, Initial residual = 0.0551038, Final residual = 0.00321476, No Iterations 1
GAMG:  Solving for p, Initial residual = 0.0148488, Final residual = 0.00121067, No Iterations 1
GAMG:  Solving for p, Initial residual = 0.00576647, Final residual = 0.000573185, No Iterations 1
GAMG:  Solving for p, Initial residual = 0.00290442, Final residual = 0.000112762, No Iterations 2
GAMG:  Solving for p, Initial residual = 0.00193914, Final residual = 0.00014558, No Iterations 1
time step continuity errors : sum local = 0.022825, global = 0.00141464, cumulative = -5.52849
ExecutionTime = 5.65 s  ClockTime = 6 s

Time = 75

smoothSolver:  Solving for Ux, Initial residual = 0.00667044, Final residual = 2.89979e-06, No Iterations 2
smoothSolver:  Solving for Uy, Initial residual = 0.00676926, Final residual = 2.98068e-06, No Iterations 2
smoothSolver:  Solving for Uz, Initial residual = 0.0061713, Final residual = 2.54157e-06, No Iterations 2
GAMG:  Solving for p, Initial residual = 0.0547985, Final residual = 0.0031907, No Iterations 1
GAMG:  Solving for p, Initial residual = 0.0147187, Final residual = 0.0011983, No Iterations 1
GAMG:  Solving for p, Initial residual = 0.00573821, Final residual = 0.000572761, No Iterations 1
GAMG:  Solving for p, Initial residual = 0.00290556, Final residual = 0.000120582, No Iterations 2
GAMG:  Solving for p, Initial residual = 0.00201243, Final residual = 0.000150346, No Iterations 1
time step continuity errors : sum local = 0.0233996, global = 0.00305888, cumulative = -5.52543
ExecutionTime = 5.73 s  ClockTime = 6 s

Time = 76

smoothSolver:  Solving for Ux, Initial residual = 0.00661811, Final residual = 2.89211e-06, No Iterations 2
smoothSolver:  Solving for Uy, Initial residual = 0.00669381, Final residual = 2.94075e-06, No Iterations 2
smoothSolver:  Solving for Uz, Initial residual = 0.00607384, Final residual = 2.49819e-06, No Iterations 2
GAMG:  Solving for p, Initial residual = 0.0544407, Final residual = 0.00316915, No Iterations 1
GAMG:  Solving for p, Initial residual = 0.014573, Final residual = 0.00118715, No Iterations 1
GAMG:  Solving for p, Initial residual = 0.00570429, Final residual = 0.000570233, No Iterations 1
GAMG:  Solving for p, Initial residual = 0.00290194, Final residual = 0.000124112, No Iterations 2
GAMG:  Solving for p, Initial residual = 0.00205819, Final residual = 0.000153171, No Iterations 1
time step continuity errors : sum local = 0.0237258, global = 0.00373648, cumulative = -5.52169
ExecutionTime = 5.79 s  ClockTime = 6 s

Time = 77

smoothSolver:  Solving for Ux, Initial residual = 0.00656543, Final residual = 2.89475e-06, No Iterations 2
smoothSolver:  Solving for Uy, Initial residual = 0.00662601, Final residual = 2.90227e-06, No Iterations 2
smoothSolver:  Solving for Uz, Initial residual = 0.00598397, Final residual = 2.46909e-06, No Iterations 2
GAMG:  Solving for p, Initial residual = 0.0537815, Final residual = 0.00313831, No Iterations 1
GAMG:  Solving for p, Initial residual = 0.0143608, Final residual = 0.00117004, No Iterations 1
GAMG:  Solving for p, Initial residual = 0.00563176, Final residual = 0.000562401, No Iterations 1
GAMG:  Solving for p, Initial residual = 0.00286801, Final residual = 0.000122626, No Iterations 2
GAMG:  Solving for p, Initial residual = 0.00204438, Final residual = 0.000152629, No Iterations 1
time step continuity errors : sum local = 0.0236619, global = 0.00374065, cumulative = -5.51795
ExecutionTime = 5.86 s  ClockTime = 6 s

Time = 78

smoothSolver:  Solving for Ux, Initial residual = 0.00651023, Final residual = 2.86893e-06, No Iterations 2
smoothSolver:  Solving for Uy, Initial residual = 0.00655511, Final residual = 2.87493e-06, No Iterations 2
smoothSolver:  Solving for Uz, Initial residual = 0.00589817, Final residual = 2.42138e-06, No Iterations 2
GAMG:  Solving for p, Initial residual = 0.0532712, Final residual = 0.00312294, No Iterations 1
GAMG:  Solving for p, Initial residual = 0.014183, Final residual = 0.00115814, No Iterations 1
GAMG:  Solving for p, Initial residual = 0.00555549, Final residual = 0.000553302, No Iterations 1
GAMG:  Solving for p, Initial residual = 0.00282004, Final residual = 0.00011708, No Iterations 2
GAMG:  Solving for p, Initial residual = 0.00197787, Final residual = 0.000148992, No Iterations 1
time step continuity errors : sum local = 0.0231317, global = 0.003138, cumulative = -5.51481
ExecutionTime = 5.94 s  ClockTime = 6 s

Time = 79

smoothSolver:  Solving for Ux, Initial residual = 0.00645283, Final residual = 2.86587e-06, No Iterations 2
smoothSolver:  Solving for Uy, Initial residual = 0.00648596, Final residual = 2.86514e-06, No Iterations 2
smoothSolver:  Solving for Uz, Initial residual = 0.00581701, Final residual = 2.38889e-06, No Iterations 2
GAMG:  Solving for p, Initial residual = 0.0527235, Final residual = 0.00309637, No Iterations 1
GAMG:  Solving for p, Initial residual = 0.0140299, Final residual = 0.00114902, No Iterations 1
GAMG:  Solving for p, Initial residual = 0.00548399, Final residual = 0.000545068, No Iterations 1
GAMG:  Solving for p, Initial residual = 0.00277337, Final residual = 0.000111292, No Iterations 2
GAMG:  Solving for p, Initial residual = 0.00189987, Final residual = 0.000144118, No Iterations 1
time step continuity errors : sum local = 0.022444, global = 0.00203775, cumulative = -5.51278
ExecutionTime = 6 s  ClockTime = 6 s

Time = 80

smoothSolver:  Solving for Ux, Initial residual = 0.00639326, Final residual = 2.84344e-06, No Iterations 2
smoothSolver:  Solving for Uy, Initial residual = 0.00641991, Final residual = 2.84268e-06, No Iterations 2
smoothSolver:  Solving for Uz, Initial residual = 0.00573519, Final residual = 2.34433e-06, No Iterations 2
GAMG:  Solving for p, Initial residual = 0.0521588, Final residual = 0.00305226, No Iterations 1
GAMG:  Solving for p, Initial residual = 0.0139082, Final residual = 0.0011319, No Iterations 1
GAMG:  Solving for p, Initial residual = 0.00540989, Final residual = 0.000535942, No Iterations 1
GAMG:  Solving for p, Initial residual = 0.00272763, Final residual = 0.000106168, No Iterations 2
GAMG:  Solving for p, Initial residual = 0.0018185, Final residual = 0.000138723, No Iterations 1
time step continuity errors : sum local = 0.0216728, global = 0.000263218, cumulative = -5.51251
ExecutionTime = 6.07 s  ClockTime = 6 s

Time = 81

smoothSolver:  Solving for Ux, Initial residual = 0.00633606, Final residual = 2.82099e-06, No Iterations 2
smoothSolver:  Solving for Uy, Initial residual = 0.00635606, Final residual = 2.83091e-06, No Iterations 2
smoothSolver:  Solving for Uz, Initial residual = 0.00565704, Final residual = 2.30918e-06, No Iterations 2
GAMG:  Solving for p, Initial residual = 0.0514279, Final residual = 0.00301211, No Iterations 1
GAMG:  Solving for p, Initial residual = 0.0137866, Final residual = 0.001116, No Iterations 1
GAMG:  Solving for p, Initial residual = 0.00534445, Final residual = 0.000527362, No Iterations 1
GAMG:  Solving for p, Initial residual = 0.00268891, Final residual = 0.000101719, No Iterations 2
GAMG:  Solving for p, Initial residual = 0.00175608, Final residual = 0.000133297, No Iterations 1
time step continuity errors : sum local = 0.0209301, global = -0.00178677, cumulative = -5.5143
ExecutionTime = 6.14 s  ClockTime = 6 s

Time = 82

smoothSolver:  Solving for Ux, Initial residual = 0.00627825, Final residual = 2.79482e-06, No Iterations 2
smoothSolver:  Solving for Uy, Initial residual = 0.00628799, Final residual = 2.8092e-06, No Iterations 2
smoothSolver:  Solving for Uz, Initial residual = 0.00558152, Final residual = 2.27109e-06, No Iterations 2
GAMG:  Solving for p, Initial residual = 0.0508489, Final residual = 0.00295894, No Iterations 1
GAMG:  Solving for p, Initial residual = 0.0136505, Final residual = 0.00109323, No Iterations 1
GAMG:  Solving for p, Initial residual = 0.00528659, Final residual = 0.000517826, No Iterations 1
GAMG:  Solving for p, Initial residual = 0.002654, Final residual = 9.91434e-05, No Iterations 2
GAMG:  Solving for p, Initial residual = 0.00172314, Final residual = 0.000129258, No Iterations 1
time step continuity errors : sum local = 0.0203685, global = -0.00383492, cumulative = -5.51813
ExecutionTime = 6.21 s  ClockTime = 6 s

Time = 83

[...]
GAMG:  Solving for p, Initial residual = 0.0313868, Final residual = 0.00213036, No Iterations 1
GAMG:  Solving for p, Initial residual = 0.00861909, Final residual = 0.000375448, No Iterations 2
GAMG:  Solving for p, Initial residual = 0.0043071, Final residual = 0.00039151, No Iterations 1
GAMG:  Solving for p, Initial residual = 0.001978, Final residual = 0.000182942, No Iterations 2
GAMG:  Solving for p, Initial residual = 0.00201751, Final residual = 0.000161647, No Iterations 1
time step continuity errors : sum local = 2040.69, global = -459.145, cumulative = -32981.4
ExecutionTime = 146.25 s  ClockTime = 149 s

Time = 1981

smoothSolver:  Solving for Ux, Initial residual = 0.00764342, Final residual = 3.54704e-06, No Iterations 2
smoothSolver:  Solving for Uy, Initial residual = 0.00735331, Final residual = 3.46003e-06, No Iterations 2
smoothSolver:  Solving for Uz, Initial residual = 0.00747194, Final residual = 2.71794e-06, No Iterations 2
GAMG:  Solving for p, Initial residual = 0.0308388, Final residual = 0.00209149, No Iterations 1
GAMG:  Solving for p, Initial residual = 0.00839954, Final residual = 0.000365205, No Iterations 2
GAMG:  Solving for p, Initial residual = 0.00418757, Final residual = 0.000378602, No Iterations 1
GAMG:  Solving for p, Initial residual = 0.0019317, Final residual = 0.000178113, No Iterations 2
GAMG:  Solving for p, Initial residual = 0.001973, Final residual = 0.000156771, No Iterations 1
time step continuity errors : sum local = 2043.72, global = -467.361, cumulative = -33448.8
ExecutionTime = 146.32 s  ClockTime = 149 s

Time = 1982

smoothSolver:  Solving for Ux, Initial residual = 0.00765317, Final residual = 3.54712e-06, No Iterations 2
smoothSolver:  Solving for Uy, Initial residual = 0.00736702, Final residual = 3.5005e-06, No Iterations 2
smoothSolver:  Solving for Uz, Initial residual = 0.00746367, Final residual = 2.77052e-06, No Iterations 2
GAMG:  Solving for p, Initial residual = 0.0325071, Final residual = 0.00219809, No Iterations 1
GAMG:  Solving for p, Initial residual = 0.00887562, Final residual = 0.000384606, No Iterations 2
GAMG:  Solving for p, Initial residual = 0.00443635, Final residual = 0.000403884, No Iterations 1
GAMG:  Solving for p, Initial residual = 0.00204211, Final residual = 0.000187979, No Iterations 2
GAMG:  Solving for p, Initial residual = 0.00207781, Final residual = 0.000166445, No Iterations 1
time step continuity errors : sum local = 2091.7, global = -470.07, cumulative = -33918.8
ExecutionTime = 146.39 s  ClockTime = 150 s

Time = 1983

smoothSolver:  Solving for Ux, Initial residual = 0.00765015, Final residual = 3.53558e-06, No Iterations 2
smoothSolver:  Solving for Uy, Initial residual = 0.00735658, Final residual = 3.4906e-06, No Iterations 2
smoothSolver:  Solving for Uz, Initial residual = 0.00746314, Final residual = 2.73989e-06, No Iterations 2
GAMG:  Solving for p, Initial residual = 0.0325404, Final residual = 0.00221366, No Iterations 1
GAMG:  Solving for p, Initial residual = 0.00887632, Final residual = 0.000385787, No Iterations 2
GAMG:  Solving for p, Initial residual = 0.00445141, Final residual = 0.000404144, No Iterations 1
GAMG:  Solving for p, Initial residual = 0.00206251, Final residual = 0.000188235, No Iterations 2
GAMG:  Solving for p, Initial residual = 0.00208651, Final residual = 0.000167332, No Iterations 1
time step continuity errors : sum local = 2141.49, global = -483.905, cumulative = -34402.7
ExecutionTime = 146.46 s  ClockTime = 150 s

Time = 1984

smoothSolver:  Solving for Ux, Initial residual = 0.0076495, Final residual = 3.51851e-06, No Iterations 2
smoothSolver:  Solving for Uy, Initial residual = 0.00733864, Final residual = 3.49019e-06, No Iterations 2
smoothSolver:  Solving for Uz, Initial residual = 0.00746965, Final residual = 2.76449e-06, No Iterations 2
GAMG:  Solving for p, Initial residual = 0.0326726, Final residual = 0.0022013, No Iterations 1
GAMG:  Solving for p, Initial residual = 0.00886111, Final residual = 0.000384914, No Iterations 2
GAMG:  Solving for p, Initial residual = 0.00444401, Final residual = 0.000402078, No Iterations 1
GAMG:  Solving for p, Initial residual = 0.00204988, Final residual = 0.000188859, No Iterations 2
GAMG:  Solving for p, Initial residual = 0.00208362, Final residual = 0.000166739, No Iterations 1
time step continuity errors : sum local = 2158.71, global = -486.02, cumulative = -34888.8
ExecutionTime = 146.53 s  ClockTime = 150 s

Time = 1985

smoothSolver:  Solving for Ux, Initial residual = 0.00766627, Final residual = 3.51365e-06, No Iterations 2
smoothSolver:  Solving for Uy, Initial residual = 0.00734909, Final residual = 3.4708e-06, No Iterations 2
smoothSolver:  Solving for Uz, Initial residual = 0.00745583, Final residual = 2.73558e-06, No Iterations 2
GAMG:  Solving for p, Initial residual = 0.0324477, Final residual = 0.00219288, No Iterations 1
GAMG:  Solving for p, Initial residual = 0.00882209, Final residual = 0.000383419, No Iterations 2
GAMG:  Solving for p, Initial residual = 0.0044212, Final residual = 0.000402124, No Iterations 1
GAMG:  Solving for p, Initial residual = 0.0020496, Final residual = 0.000187163, No Iterations 2
GAMG:  Solving for p, Initial residual = 0.00207569, Final residual = 0.000166602, No Iterations 1
time step continuity errors : sum local = 2203.48, global = -499.449, cumulative = -35388.2
ExecutionTime = 146.61 s  ClockTime = 150 s

Time = 1986

smoothSolver:  Solving for Ux, Initial residual = 0.00765886, Final residual = 3.5139e-06, No Iterations 2
smoothSolver:  Solving for Uy, Initial residual = 0.0073316, Final residual = 3.50088e-06, No Iterations 2
smoothSolver:  Solving for Uz, Initial residual = 0.00745973, Final residual = 2.77618e-06, No Iterations 2
GAMG:  Solving for p, Initial residual = 0.0330389, Final residual = 0.00223532, No Iterations 1
GAMG:  Solving for p, Initial residual = 0.00899809, Final residual = 0.000389308, No Iterations 2
GAMG:  Solving for p, Initial residual = 0.00448874, Final residual = 0.000404342, No Iterations 1
GAMG:  Solving for p, Initial residual = 0.00207142, Final residual = 0.000190143, No Iterations 2
GAMG:  Solving for p, Initial residual = 0.00210819, Final residual = 0.000167656, No Iterations 1
time step continuity errors : sum local = 2195.02, global = -498.632, cumulative = -35886.8
ExecutionTime = 146.68 s  ClockTime = 150 s

Time = 1987

smoothSolver:  Solving for Ux, Initial residual = 0.00767488, Final residual = 3.51015e-06, No Iterations 2
smoothSolver:  Solving for Uy, Initial residual = 0.00733026, Final residual = 3.46054e-06, No Iterations 2
smoothSolver:  Solving for Uz, Initial residual = 0.00747271, Final residual = 2.73072e-06, No Iterations 2
GAMG:  Solving for p, Initial residual = 0.0334287, Final residual = 0.00225754, No Iterations 1
GAMG:  Solving for p, Initial residual = 0.00908054, Final residual = 0.000395672, No Iterations 2
GAMG:  Solving for p, Initial residual = 0.00452963, Final residual = 0.00041065, No Iterations 1
GAMG:  Solving for p, Initial residual = 0.00210026, Final residual = 0.000192544, No Iterations 2
GAMG:  Solving for p, Initial residual = 0.00214322, Final residual = 0.00017073, No Iterations 1
time step continuity errors : sum local = 2247.58, global = -511.439, cumulative = -36398.3
ExecutionTime = 146.75 s  ClockTime = 150 s

Time = 1988

smoothSolver:  Solving for Ux, Initial residual = 0.00769391, Final residual = 3.47638e-06, No Iterations 2
smoothSolver:  Solving for Uy, Initial residual = 0.00734355, Final residual = 3.47608e-06, No Iterations 2
smoothSolver:  Solving for Uz, Initial residual = 0.00746091, Final residual = 2.78999e-06, No Iterations 2
GAMG:  Solving for p, Initial residual = 0.0337454, Final residual = 0.00225383, No Iterations 1
GAMG:  Solving for p, Initial residual = 0.00916574, Final residual = 0.000394824, No Iterations 2
GAMG:  Solving for p, Initial residual = 0.00451309, Final residual = 0.000406452, No Iterations 1
GAMG:  Solving for p, Initial residual = 0.00207713, Final residual = 0.000191452, No Iterations 2
GAMG:  Solving for p, Initial residual = 0.00213284, Final residual = 0.000168234, No Iterations 1
time step continuity errors : sum local = 2233.13, global = -510.634, cumulative = -36908.9
ExecutionTime = 146.83 s  ClockTime = 150 s

Time = 1989

smoothSolver:  Solving for Ux, Initial residual = 0.00770713, Final residual = 3.46068e-06, No Iterations 2
smoothSolver:  Solving for Uy, Initial residual = 0.00734887, Final residual = 3.47377e-06, No Iterations 2
smoothSolver:  Solving for Uz, Initial residual = 0.00746961, Final residual = 2.76611e-06, No Iterations 2
GAMG:  Solving for p, Initial residual = 0.034026, Final residual = 0.00227732, No Iterations 1
GAMG:  Solving for p, Initial residual = 0.0092808, Final residual = 0.000400187, No Iterations 2
GAMG:  Solving for p, Initial residual = 0.00454177, Final residual = 0.000410434, No Iterations 1
GAMG:  Solving for p, Initial residual = 0.00209661, Final residual = 0.000191972, No Iterations 2
GAMG:  Solving for p, Initial residual = 0.00214597, Final residual = 0.000168189, No Iterations 1
time step continuity errors : sum local = 2251.37, global = -518.14, cumulative = -37427.1
ExecutionTime = 146.9 s  ClockTime = 150 s

Time = 1990

smoothSolver:  Solving for Ux, Initial residual = 0.00771096, Final residual = 3.4723e-06, No Iterations 2
smoothSolver:  Solving for Uy, Initial residual = 0.00733268, Final residual = 3.4964e-06, No Iterations 2
smoothSolver:  Solving for Uz, Initial residual = 0.00748425, Final residual = 2.78062e-06, No Iterations 2
GAMG:  Solving for p, Initial residual = 0.0339831, Final residual = 0.00228144, No Iterations 1
GAMG:  Solving for p, Initial residual = 0.00933954, Final residual = 0.000401961, No Iterations 2
GAMG:  Solving for p, Initial residual = 0.00456301, Final residual = 0.000410655, No Iterations 1
GAMG:  Solving for p, Initial residual = 0.00209234, Final residual = 0.000191493, No Iterations 2
GAMG:  Solving for p, Initial residual = 0.00214548, Final residual = 0.000167065, No Iterations 1
time step continuity errors : sum local = 2268.47, global = -518.76, cumulative = -37945.8
ExecutionTime = 146.97 s  ClockTime = 150 s

Time = 1991

smoothSolver:  Solving for Ux, Initial residual = 0.00774105, Final residual = 3.46187e-06, No Iterations 2
smoothSolver:  Solving for Uy, Initial residual = 0.00735042, Final residual = 3.50788e-06, No Iterations 2
smoothSolver:  Solving for Uz, Initial residual = 0.00747905, Final residual = 2.78762e-06, No Iterations 2
GAMG:  Solving for p, Initial residual = 0.0339108, Final residual = 0.00230355, No Iterations 1
GAMG:  Solving for p, Initial residual = 0.00927646, Final residual = 0.000402681, No Iterations 2
GAMG:  Solving for p, Initial residual = 0.00454387, Final residual = 0.000407961, No Iterations 1
GAMG:  Solving for p, Initial residual = 0.00208147, Final residual = 0.000191296, No Iterations 2
GAMG:  Solving for p, Initial residual = 0.00214393, Final residual = 0.000166032, No Iterations 1
time step continuity errors : sum local = 2295.27, global = -529.257, cumulative = -38475.1
ExecutionTime = 147.05 s  ClockTime = 150 s

Time = 1992

smoothSolver:  Solving for Ux, Initial residual = 0.00774785, Final residual = 3.51336e-06, No Iterations 2
smoothSolver:  Solving for Uy, Initial residual = 0.007331, Final residual = 3.60173e-06, No Iterations 2
smoothSolver:  Solving for Uz, Initial residual = 0.00748379, Final residual = 2.79588e-06, No Iterations 2
GAMG:  Solving for p, Initial residual = 0.0337257, Final residual = 0.00231089, No Iterations 1
GAMG:  Solving for p, Initial residual = 0.00928953, Final residual = 0.00040354, No Iterations 2
GAMG:  Solving for p, Initial residual = 0.00456477, Final residual = 0.000409588, No Iterations 1
GAMG:  Solving for p, Initial residual = 0.00209621, Final residual = 0.000190828, No Iterations 2
GAMG:  Solving for p, Initial residual = 0.00214735, Final residual = 0.000165769, No Iterations 1
time step continuity errors : sum local = 2324.14, global = -532.61, cumulative = -39007.7
ExecutionTime = 147.12 s  ClockTime = 150 s

Time = 1993

smoothSolver:  Solving for Ux, Initial residual = 0.00775343, Final residual = 3.47827e-06, No Iterations 2
smoothSolver:  Solving for Uy, Initial residual = 0.00734525, Final residual = 3.54833e-06, No Iterations 2
smoothSolver:  Solving for Uz, Initial residual = 0.00750803, Final residual = 2.80351e-06, No Iterations 2
GAMG:  Solving for p, Initial residual = 0.0339487, Final residual = 0.0023202, No Iterations 1
GAMG:  Solving for p, Initial residual = 0.00920288, Final residual = 0.00040319, No Iterations 2
GAMG:  Solving for p, Initial residual = 0.00453447, Final residual = 0.000407952, No Iterations 1
GAMG:  Solving for p, Initial residual = 0.00207959, Final residual = 0.000193253, No Iterations 2
GAMG:  Solving for p, Initial residual = 0.00215735, Final residual = 0.000167501, No Iterations 1
time step continuity errors : sum local = 2386.92, global = -551.761, cumulative = -39559.4
ExecutionTime = 147.19 s  ClockTime = 150 s

Time = 1994

smoothSolver:  Solving for Ux, Initial residual = 0.00777196, Final residual = 3.50776e-06, No Iterations 2
smoothSolver:  Solving for Uy, Initial residual = 0.0073432, Final residual = 3.5358e-06, No Iterations 2
smoothSolver:  Solving for Uz, Initial residual = 0.00749603, Final residual = 2.81988e-06, No Iterations 2
GAMG:  Solving for p, Initial residual = 0.0337195, Final residual = 0.00229801, No Iterations 1
GAMG:  Solving for p, Initial residual = 0.00912364, Final residual = 0.000396611, No Iterations 2
GAMG:  Solving for p, Initial residual = 0.00450232, Final residual = 0.000404783, No Iterations 1
GAMG:  Solving for p, Initial residual = 0.00207365, Final residual = 0.000191383, No Iterations 2
GAMG:  Solving for p, Initial residual = 0.00214018, Final residual = 0.00016646, No Iterations 1
time step continuity errors : sum local = 2415.2, global = -557.653, cumulative = -40117.1
ExecutionTime = 147.26 s  ClockTime = 150 s

Time = 1995

smoothSolver:  Solving for Ux, Initial residual = 0.00777254, Final residual = 3.48487e-06, No Iterations 2
smoothSolver:  Solving for Uy, Initial residual = 0.00734941, Final residual = 3.53161e-06, No Iterations 2
smoothSolver:  Solving for Uz, Initial residual = 0.00751108, Final residual = 2.82274e-06, No Iterations 2
GAMG:  Solving for p, Initial residual = 0.0336624, Final residual = 0.00230316, No Iterations 1
GAMG:  Solving for p, Initial residual = 0.00903975, Final residual = 0.000392504, No Iterations 2
GAMG:  Solving for p, Initial residual = 0.00447723, Final residual = 0.00040234, No Iterations 1
GAMG:  Solving for p, Initial residual = 0.00206789, Final residual = 0.000191072, No Iterations 2
GAMG:  Solving for p, Initial residual = 0.00213198, Final residual = 0.000166699, No Iterations 1
time step continuity errors : sum local = 2458.08, global = -574.511, cumulative = -40691.6
ExecutionTime = 147.33 s  ClockTime = 150 s

Time = 1996

smoothSolver:  Solving for Ux, Initial residual = 0.00776555, Final residual = 3.50899e-06, No Iterations 2
smoothSolver:  Solving for Uy, Initial residual = 0.00734512, Final residual = 3.53175e-06, No Iterations 2
smoothSolver:  Solving for Uz, Initial residual = 0.00752469, Final residual = 2.82754e-06, No Iterations 2
GAMG:  Solving for p, Initial residual = 0.0333513, Final residual = 0.0022811, No Iterations 1
GAMG:  Solving for p, Initial residual = 0.00899399, Final residual = 0.000387024, No Iterations 2
GAMG:  Solving for p, Initial residual = 0.00445349, Final residual = 0.000398031, No Iterations 1
GAMG:  Solving for p, Initial residual = 0.00206716, Final residual = 0.000187998, No Iterations 2
GAMG:  Solving for p, Initial residual = 0.00211363, Final residual = 0.000165533, No Iterations 1
time step continuity errors : sum local = 2495.7, global = -582.208, cumulative = -41273.8
ExecutionTime = 147.41 s  ClockTime = 151 s

Time = 1997

smoothSolver:  Solving for Ux, Initial residual = 0.00778521, Final residual = 3.47286e-06, No Iterations 2
smoothSolver:  Solving for Uy, Initial residual = 0.00738263, Final residual = 3.47289e-06, No Iterations 2
smoothSolver:  Solving for Uz, Initial residual = 0.00753057, Final residual = 2.84508e-06, No Iterations 2
GAMG:  Solving for p, Initial residual = 0.0330145, Final residual = 0.00227057, No Iterations 1
GAMG:  Solving for p, Initial residual = 0.00883601, Final residual = 0.000382369, No Iterations 2
GAMG:  Solving for p, Initial residual = 0.00442203, Final residual = 0.000392601, No Iterations 1
GAMG:  Solving for p, Initial residual = 0.00204228, Final residual = 0.00018677, No Iterations 2
GAMG:  Solving for p, Initial residual = 0.00209771, Final residual = 0.000163861, No Iterations 1
time step continuity errors : sum local = 2525.27, global = -595.751, cumulative = -41869.6
ExecutionTime = 147.48 s  ClockTime = 151 s

Time = 1998

smoothSolver:  Solving for Ux, Initial residual = 0.00774971, Final residual = 3.53138e-06, No Iterations 2
smoothSolver:  Solving for Uy, Initial residual = 0.00735142, Final residual = 3.56319e-06, No Iterations 2
smoothSolver:  Solving for Uz, Initial residual = 0.00754294, Final residual = 2.85255e-06, No Iterations 2
GAMG:  Solving for p, Initial residual = 0.0322853, Final residual = 0.00222098, No Iterations 1
GAMG:  Solving for p, Initial residual = 0.00878815, Final residual = 0.000378236, No Iterations 2
GAMG:  Solving for p, Initial residual = 0.00441087, Final residual = 0.000391233, No Iterations 1
GAMG:  Solving for p, Initial residual = 0.0020368, Final residual = 0.000183575, No Iterations 2
GAMG:  Solving for p, Initial residual = 0.00207133, Final residual = 0.00016119, No Iterations 1
time step continuity errors : sum local = 2536.73, global = -589.042, cumulative = -42458.6
ExecutionTime = 147.56 s  ClockTime = 151 s

Time = 1999

smoothSolver:  Solving for Ux, Initial residual = 0.00775137, Final residual = 3.47666e-06, No Iterations 2
smoothSolver:  Solving for Uy, Initial residual = 0.00737686, Final residual = 3.48596e-06, No Iterations 2
smoothSolver:  Solving for Uz, Initial residual = 0.00754994, Final residual = 2.84693e-06, No Iterations 2
GAMG:  Solving for p, Initial residual = 0.0321339, Final residual = 0.00220108, No Iterations 1
GAMG:  Solving for p, Initial residual = 0.00880757, Final residual = 0.000376617, No Iterations 2
GAMG:  Solving for p, Initial residual = 0.00446442, Final residual = 0.000388377, No Iterations 1
GAMG:  Solving for p, Initial residual = 0.00207499, Final residual = 0.000184003, No Iterations 2
GAMG:  Solving for p, Initial residual = 0.00210038, Final residual = 0.000159928, No Iterations 1
time step continuity errors : sum local = 2576.34, global = -600.819, cumulative = -43059.4
ExecutionTime = 147.63 s  ClockTime = 151 s

Time = 2000

smoothSolver:  Solving for Ux, Initial residual = 0.00775344, Final residual = 3.51336e-06, No Iterations 2
smoothSolver:  Solving for Uy, Initial residual = 0.0073714, Final residual = 3.48971e-06, No Iterations 2
smoothSolver:  Solving for Uz, Initial residual = 0.00755106, Final residual = 2.85258e-06, No Iterations 2
GAMG:  Solving for p, Initial residual = 0.0317239, Final residual = 0.00218423, No Iterations 1
GAMG:  Solving for p, Initial residual = 0.00876608, Final residual = 0.000376651, No Iterations 2
GAMG:  Solving for p, Initial residual = 0.00438435, Final residual = 0.000388815, No Iterations 1
GAMG:  Solving for p, Initial residual = 0.00203394, Final residual = 0.000181413, No Iterations 2
GAMG:  Solving for p, Initial residual = 0.00204303, Final residual = 0.000157981, No Iterations 1
time step continuity errors : sum local = 2605.4, global = -604.105, cumulative = -43663.5
ExecutionTime = 147.84 s  ClockTime = 151 s

End

