/*---------------------------------------------------------------------------*\
| =========                 |                                                 |
| \\      /  F ield         | OpenFOAM: The Open Source CFD Toolbox           |
|  \\    /   O peration     | Version:  2506                                  |
|   \\  /    A nd           | Website:  www.openfoam.com                      |
|    \\/     M anipulation  |                                                 |
\*---------------------------------------------------------------------------*/
Build  : _615aae61-20250627 OPENFOAM=2506 version=2506
Arch   : "LSB;label=32;scalar=64"
Exec   : simpleFoam -noFunctionObjects -case /home/ubuntu/fan_CFD_dataset/cases/fan_9
Date   : Nov 07 2025
Time   : 15:29:15
Host   : ip-172-31-37-87
PID    : 182908
I/O    : uncollated
Case   : /home/ubuntu/fan_CFD_dataset/cases/fan_9
nProcs : 1
trapFpe: Floating point exception trapping enabled (FOAM_SIGFPE).
fileModificationChecking : Monitoring run-time modified files using timeStampMaster (fileModificationSkew 5, maxFileModificationPolls 20)
allowSystemOperations : Allowing user-supplied system call operations

// * * * * * * * * * * * * * * * * * * * * * * * * * * * * * * * * * * * * * //
Create time

Create mesh for time = 0


SIMPLE: convergence criteria
    field U	 tolerance 1e-05
    field p	 tolerance 0.0001

Reading field p

Reading field U

Reading/calculating face flux field phi

Selecting incompressible transport model Newtonian
Selecting turbulence model type laminar
Selecting laminar stress model Stokes
No MRF models present

No finite volume options present

Starting time loop

Time = 1

smoothSolver:  Solving for Ux, Initial residual = 1, Final residual = 0.000304012, No Iterations 2
smoothSolver:  Solving for Uy, Initial residual = 1, Final residual = 0.000337428, No Iterations 2
smoothSolver:  Solving for Uz, Initial residual = 1, Final residual = 0.000620396, No Iterations 2
GAMG:  Solving for p, Initial residual = 1, Final residual = 0.0764166, No Iterations 4
GAMG:  Solving for p, Initial residual = 0.143622, Final residual = 0.0104926, No Iterations 1
GAMG:  Solving for p, Initial residual = 0.0401019, Final residual = 0.00149984, No Iterations 2
GAMG:  Solving for p, Initial residual = 0.0238543, Final residual = 0.00173802, No Iterations 1
GAMG:  Solving for p, Initial residual = 0.0101845, Final residual = 0.000493617, No Iterations 2
time step continuity errors : sum local = 7.08969, global = -0.830192, cumulative = -0.830192
ExecutionTime = 0.3 s  ClockTime = 0 s

Time = 2

smoothSolver:  Solving for Ux, Initial residual = 0.0718188, Final residual = 3.01818e-05, No Iterations 2
smoothSolver:  Solving for Uy, Initial residual = 0.0691111, Final residual = 3.00751e-05, No Iterations 2
smoothSolver:  Solving for Uz, Initial residual = 0.182107, Final residual = 6.47214e-05, No Iterations 2
GAMG:  Solving for p, Initial residual = 0.31755, Final residual = 0.0270089, No Iterations 4
GAMG:  Solving for p, Initial residual = 0.088956, Final residual = 0.00637959, No Iterations 1
GAMG:  Solving for p, Initial residual = 0.0288218, Final residual = 0.00113959, No Iterations 2
GAMG:  Solving for p, Initial residual = 0.0184848, Final residual = 0.00137758, No Iterations 1
GAMG:  Solving for p, Initial residual = 0.00877621, Final residual = 0.000436004, No Iterations 2
time step continuity errors : sum local = 8.58095, global = -0.634806, cumulative = -1.465
ExecutionTime = 0.4 s  ClockTime = 0 s

Time = 3

smoothSolver:  Solving for Ux, Initial residual = 0.208042, Final residual = 9.58087e-05, No Iterations 2
smoothSolver:  Solving for Uy, Initial residual = 0.208579, Final residual = 9.57032e-05, No Iterations 2
smoothSolver:  Solving for Uz, Initial residual = 0.558168, Final residual = 0.000215051, No Iterations 2
GAMG:  Solving for p, Initial residual = 0.0689539, Final residual = 0.00578549, No Iterations 3
GAMG:  Solving for p, Initial residual = 0.0758204, Final residual = 0.00548998, No Iterations 1
GAMG:  Solving for p, Initial residual = 0.0238926, Final residual = 0.00101425, No Iterations 2
GAMG:  Solving for p, Initial residual = 0.0165018, Final residual = 0.00123801, No Iterations 1
GAMG:  Solving for p, Initial residual = 0.00741738, Final residual = 0.000369599, No Iterations 2
time step continuity errors : sum local = 4.24032, global = -0.341879, cumulative = -1.80688
ExecutionTime = 0.5 s  ClockTime = 0 s

Time = 4

smoothSolver:  Solving for Ux, Initial residual = 0.181686, Final residual = 8.22447e-05, No Iterations 2
smoothSolver:  Solving for Uy, Initial residual = 0.181355, Final residual = 8.31107e-05, No Iterations 2
smoothSolver:  Solving for Uz, Initial residual = 0.546457, Final residual = 0.000215405, No Iterations 2
GAMG:  Solving for p, Initial residual = 0.0437782, Final residual = 0.0032483, No Iterations 1
GAMG:  Solving for p, Initial residual = 0.0143518, Final residual = 0.000742913, No Iterations 2
GAMG:  Solving for p, Initial residual = 0.0126846, Final residual = 0.000952761, No Iterations 1
GAMG:  Solving for p, Initial residual = 0.00542863, Final residual = 0.000274622, No Iterations 2
GAMG:  Solving for p, Initial residual = 0.0048985, Final residual = 0.000388818, No Iterations 1
time step continuity errors : sum local = 2.69145, global = -0.541785, cumulative = -2.34866
ExecutionTime = 0.6 s  ClockTime = 0 s

Time = 5

smoothSolver:  Solving for Ux, Initial residual = 0.134266, Final residual = 5.86643e-05, No Iterations 2
smoothSolver:  Solving for Uy, Initial residual = 0.133837, Final residual = 5.82649e-05, No Iterations 2
smoothSolver:  Solving for Uz, Initial residual = 0.464425, Final residual = 0.000178418, No Iterations 2
GAMG:  Solving for p, Initial residual = 0.047671, Final residual = 0.00378487, No Iterations 2
GAMG:  Solving for p, Initial residual = 0.130206, Final residual = 0.00892298, No Iterations 1
GAMG:  Solving for p, Initial residual = 0.0595856, Final residual = 0.00295588, No Iterations 2
GAMG:  Solving for p, Initial residual = 0.0925536, Final residual = 0.00648546, No Iterations 1
GAMG:  Solving for p, Initial residual = 0.0437234, Final residual = 0.00213924, No Iterations 2
time step continuity errors : sum local = 2.57715, global = 0.209593, cumulative = -2.13907
ExecutionTime = 0.69 s  ClockTime = 1 s

Time = 6

smoothSolver:  Solving for Ux, Initial residual = 0.090534, Final residual = 4.10143e-05, No Iterations 2
smoothSolver:  Solving for Uy, Initial residual = 0.0904074, Final residual = 4.04112e-05, No Iterations 2
smoothSolver:  Solving for Uz, Initial residual = 0.332564, Final residual = 0.000128197, No Iterations 2
GAMG:  Solving for p, Initial residual = 0.0570786, Final residual = 0.00461783, No Iterations 3
GAMG:  Solving for p, Initial residual = 0.190598, Final residual = 0.0135965, No Iterations 1
GAMG:  Solving for p, Initial residual = 0.0691599, Final residual = 0.00300203, No Iterations 2
GAMG:  Solving for p, Initial residual = 0.0440185, Final residual = 0.00322304, No Iterations 1
GAMG:  Solving for p, Initial residual = 0.0193113, Final residual = 0.000958111, No Iterations 2
time step continuity errors : sum local = 4.28549, global = 0.354733, cumulative = -1.78434
ExecutionTime = 0.78 s  ClockTime = 1 s

Time = 7

smoothSolver:  Solving for Ux, Initial residual = 0.0558583, Final residual = 2.70427e-05, No Iterations 2
smoothSolver:  Solving for Uy, Initial residual = 0.0558777, Final residual = 2.69129e-05, No Iterations 2
smoothSolver:  Solving for Uz, Initial residual = 0.188327, Final residual = 7.72637e-05, No Iterations 2
GAMG:  Solving for p, Initial residual = 0.0793524, Final residual = 0.0078355, No Iterations 3
GAMG:  Solving for p, Initial residual = 0.140559, Final residual = 0.0100475, No Iterations 1
GAMG:  Solving for p, Initial residual = 0.0468988, Final residual = 0.00204106, No Iterations 2
GAMG:  Solving for p, Initial residual = 0.0309459, Final residual = 0.00229551, No Iterations 1
GAMG:  Solving for p, Initial residual = 0.0137864, Final residual = 0.000690147, No Iterations 2
time step continuity errors : sum local = 5.00119, global = 0.404646, cumulative = -1.37969
ExecutionTime = 0.89 s  ClockTime = 1 s

Time = 8

smoothSolver:  Solving for Ux, Initial residual = 0.0379894, Final residual = 1.97742e-05, No Iterations 2
smoothSolver:  Solving for Uy, Initial residual = 0.0379235, Final residual = 2.00123e-05, No Iterations 2
smoothSolver:  Solving for Uz, Initial residual = 0.069634, Final residual = 3.50764e-05, No Iterations 2
GAMG:  Solving for p, Initial residual = 0.205059, Final residual = 0.0193133, No Iterations 3
GAMG:  Solving for p, Initial residual = 0.110286, Final residual = 0.00790523, No Iterations 1
GAMG:  Solving for p, Initial residual = 0.0357517, Final residual = 0.00156022, No Iterations 2
GAMG:  Solving for p, Initial residual = 0.0244437, Final residual = 0.00183524, No Iterations 1
GAMG:  Solving for p, Initial residual = 0.0110991, Final residual = 0.000561457, No Iterations 2
time step continuity errors : sum local = 4.5167, global = 0.364117, cumulative = -1.01557
ExecutionTime = 0.98 s  ClockTime = 1 s

Time = 9

smoothSolver:  Solving for Ux, Initial residual = 0.0438887, Final residual = 2.24137e-05, No Iterations 2
smoothSolver:  Solving for Uy, Initial residual = 0.0447519, Final residual = 2.30324e-05, No Iterations 2
smoothSolver:  Solving for Uz, Initial residual = 0.10989, Final residual = 4.72045e-05, No Iterations 2
GAMG:  Solving for p, Initial residual = 0.135516, Final residual = 0.0133408, No Iterations 2
GAMG:  Solving for p, Initial residual = 0.0786558, Final residual = 0.00562454, No Iterations 1
GAMG:  Solving for p, Initial residual = 0.0278339, Final residual = 0.00139798, No Iterations 2
GAMG:  Solving for p, Initial residual = 0.0225604, Final residual = 0.00168325, No Iterations 1
GAMG:  Solving for p, Initial residual = 0.00996284, Final residual = 0.000502193, No Iterations 2
time step continuity errors : sum local = 3.46282, global = 0.260281, cumulative = -0.755292
ExecutionTime = 1.07 s  ClockTime = 1 s

Time = 10

smoothSolver:  Solving for Ux, Initial residual = 0.0592057, Final residual = 2.84471e-05, No Iterations 2
smoothSolver:  Solving for Uy, Initial residual = 0.0604654, Final residual = 2.87733e-05, No Iterations 2
smoothSolver:  Solving for Uz, Initial residual = 0.224693, Final residual = 8.60197e-05, No Iterations 2
GAMG:  Solving for p, Initial residual = 0.0941576, Final residual = 0.00862878, No Iterations 1
GAMG:  Solving for p, Initial residual = 0.037953, Final residual = 0.00195239, No Iterations 2
GAMG:  Solving for p, Initial residual = 0.0283757, Final residual = 0.00212746, No Iterations 1
GAMG:  Solving for p, Initial residual = 0.0121201, Final residual = 0.000613494, No Iterations 2
GAMG:  Solving for p, Initial residual = 0.0105369, Final residual = 0.000838503, No Iterations 1
time step continuity errors : sum local = 3.73093, global = 0.78511, cumulative = 0.0298189
ExecutionTime = 1.16 s  ClockTime = 1 s

Time = 11

smoothSolver:  Solving for Ux, Initial residual = 0.0689062, Final residual = 3.1635e-05, No Iterations 2
smoothSolver:  Solving for Uy, Initial residual = 0.0699874, Final residual = 3.22147e-05, No Iterations 2
smoothSolver:  Solving for Uz, Initial residual = 0.29377, Final residual = 0.000108659, No Iterations 2
GAMG:  Solving for p, Initial residual = 0.0860851, Final residual = 0.00748865, No Iterations 1
GAMG:  Solving for p, Initial residual = 0.041443, Final residual = 0.00216148, No Iterations 2
GAMG:  Solving for p, Initial residual = 0.0371854, Final residual = 0.00245874, No Iterations 1
GAMG:  Solving for p, Initial residual = 0.0144735, Final residual = 0.000688709, No Iterations 2
GAMG:  Solving for p, Initial residual = 0.014239, Final residual = 0.000980613, No Iterations 1
time step continuity errors : sum local = 1.64243, global = -0.385181, cumulative = -0.355362
ExecutionTime = 1.25 s  ClockTime = 1 s

Time = 12

smoothSolver:  Solving for Ux, Initial residual = 0.068598, Final residual = 3.21119e-05, No Iterations 2
smoothSolver:  Solving for Uy, Initial residual = 0.0694639, Final residual = 3.20477e-05, No Iterations 2
smoothSolver:  Solving for Uz, Initial residual = 0.292533, Final residual = 0.000108172, No Iterations 2
GAMG:  Solving for p, Initial residual = 0.0903745, Final residual = 0.00583068, No Iterations 2
GAMG:  Solving for p, Initial residual = 0.245907, Final residual = 0.0166768, No Iterations 1
GAMG:  Solving for p, Initial residual = 0.0904164, Final residual = 0.00446913, No Iterations 2
GAMG:  Solving for p, Initial residual = 0.0581504, Final residual = 0.00404066, No Iterations 1
GAMG:  Solving for p, Initial residual = 0.0239016, Final residual = 0.00115758, No Iterations 2
time step continuity errors : sum local = 1.83119, global = -0.160136, cumulative = -0.515497
ExecutionTime = 1.35 s  ClockTime = 1 s

Time = 13

smoothSolver:  Solving for Ux, Initial residual = 0.0583765, Final residual = 2.85262e-05, No Iterations 2
smoothSolver:  Solving for Uy, Initial residual = 0.0591308, Final residual = 2.82755e-05, No Iterations 2
smoothSolver:  Solving for Uz, Initial residual = 0.211539, Final residual = 8.03032e-05, No Iterations 2
GAMG:  Solving for p, Initial residual = 0.110052, Final residual = 0.00977494, No Iterations 2
GAMG:  Solving for p, Initial residual = 0.155615, Final residual = 0.0107691, No Iterations 1
GAMG:  Solving for p, Initial residual = 0.0554039, Final residual = 0.0027485, No Iterations 2
GAMG:  Solving for p, Initial residual = 0.039856, Final residual = 0.00284304, No Iterations 1
GAMG:  Solving for p, Initial residual = 0.0164922, Final residual = 0.000805433, No Iterations 2
time step continuity errors : sum local = 2.51618, global = -0.211571, cumulative = -0.727069
ExecutionTime = 1.44 s  ClockTime = 1 s

Time = 14

smoothSolver:  Solving for Ux, Initial residual = 0.0454724, Final residual = 2.32385e-05, No Iterations 2
smoothSolver:  Solving for Uy, Initial residual = 0.0459913, Final residual = 2.33711e-05, No Iterations 2
smoothSolver:  Solving for Uz, Initial residual = 0.0937087, Final residual = 4.17878e-05, No Iterations 2
GAMG:  Solving for p, Initial residual = 0.182189, Final residual = 0.0107522, No Iterations 3
GAMG:  Solving for p, Initial residual = 0.118143, Final residual = 0.00849383, No Iterations 1
GAMG:  Solving for p, Initial residual = 0.0390338, Final residual = 0.00169721, No Iterations 2
GAMG:  Solving for p, Initial residual = 0.0263994, Final residual = 0.00196649, No Iterations 1
GAMG:  Solving for p, Initial residual = 0.0118664, Final residual = 0.000590572, No Iterations 2
time step continuity errors : sum local = 2.30411, global = -0.195393, cumulative = -0.922462
ExecutionTime = 1.54 s  ClockTime = 1 s

Time = 15

smoothSolver:  Solving for Ux, Initial residual = 0.0390288, Final residual = 2.06261e-05, No Iterations 2
smoothSolver:  Solving for Uy, Initial residual = 0.0402172, Final residual = 2.13498e-05, No Iterations 2
smoothSolver:  Solving for Uz, Initial residual = 0.0612757, Final residual = 3.01476e-05, No Iterations 2
GAMG:  Solving for p, Initial residual = 0.24716, Final residual = 0.0227678, No Iterations 2
GAMG:  Solving for p, Initial residual = 0.0926789, Final residual = 0.0067429, No Iterations 1
GAMG:  Solving for p, Initial residual = 0.0328606, Final residual = 0.00167926, No Iterations 2
GAMG:  Solving for p, Initial residual = 0.0262647, Final residual = 0.0019613, No Iterations 1
GAMG:  Solving for p, Initial residual = 0.0114589, Final residual = 0.000578193, No Iterations 2
time step continuity errors : sum local = 2.08166, global = -0.158172, cumulative = -1.08063
ExecutionTime = 1.63 s  ClockTime = 1 s

Time = 16

smoothSolver:  Solving for Ux, Initial residual = 0.0385105, Final residual = 2.00668e-05, No Iterations 2
smoothSolver:  Solving for Uy, Initial residual = 0.0401236, Final residual = 2.08303e-05, No Iterations 2
smoothSolver:  Solving for Uz, Initial residual = 0.118599, Final residual = 4.62588e-05, No Iterations 2
GAMG:  Solving for p, Initial residual = 0.115249, Final residual = 0.00729557, No Iterations 2
GAMG:  Solving for p, Initial residual = 0.0610784, Final residual = 0.00475452, No Iterations 1
GAMG:  Solving for p, Initial residual = 0.0239588, Final residual = 0.00127882, No Iterations 2
GAMG:  Solving for p, Initial residual = 0.0204814, Final residual = 0.00160814, No Iterations 1
GAMG:  Solving for p, Initial residual = 0.00936304, Final residual = 0.000486596, No Iterations 2
time step continuity errors : sum local = 1.30735, global = -0.0903765, cumulative = -1.17101
ExecutionTime = 1.72 s  ClockTime = 2 s

Time = 17

smoothSolver:  Solving for Ux, Initial residual = 0.0374629, Final residual = 1.90561e-05, No Iterations 2
smoothSolver:  Solving for Uy, Initial residual = 0.0387027, Final residual = 1.96247e-05, No Iterations 2
smoothSolver:  Solving for Uz, Initial residual = 0.1445, Final residual = 5.31671e-05, No Iterations 2
GAMG:  Solving for p, Initial residual = 0.0901232, Final residual = 0.00277715, No Iterations 2
GAMG:  Solving for p, Initial residual = 0.0419956, Final residual = 0.00357636, No Iterations 1
GAMG:  Solving for p, Initial residual = 0.0173699, Final residual = 0.00073773, No Iterations 2
GAMG:  Solving for p, Initial residual = 0.0123335, Final residual = 0.00116491, No Iterations 1
GAMG:  Solving for p, Initial residual = 0.00653957, Final residual = 0.000292338, No Iterations 2
time step continuity errors : sum local = 0.430445, global = 0.0375691, cumulative = -1.13344
ExecutionTime = 1.82 s  ClockTime = 2 s

Time = 18

smoothSolver:  Solving for Ux, Initial residual = 0.0337121, Final residual = 1.68807e-05, No Iterations 2
smoothSolver:  Solving for Uy, Initial residual = 0.0344272, Final residual = 1.72761e-05, No Iterations 2
smoothSolver:  Solving for Uz, Initial residual = 0.134112, Final residual = 4.91125e-05, No Iterations 2
GAMG:  Solving for p, Initial residual = 0.0864142, Final residual = 0.00460167, No Iterations 2
GAMG:  Solving for p, Initial residual = 0.182276, Final residual = 0.0120971, No Iterations 1
GAMG:  Solving for p, Initial residual = 0.0745237, Final residual = 0.00361889, No Iterations 2
GAMG:  Solving for p, Initial residual = 0.0693209, Final residual = 0.00468161, No Iterations 1
GAMG:  Solving for p, Initial residual = 0.0279709, Final residual = 0.00134383, No Iterations 2
time step continuity errors : sum local = 0.621412, global = 0.0560622, cumulative = -1.07738
ExecutionTime = 1.91 s  ClockTime = 2 s

Time = 19

smoothSolver:  Solving for Ux, Initial residual = 0.0284834, Final residual = 1.45111e-05, No Iterations 2
smoothSolver:  Solving for Uy, Initial residual = 0.0286523, Final residual = 1.45172e-05, No Iterations 2
smoothSolver:  Solving for Uz, Initial residual = 0.100678, Final residual = 3.72978e-05, No Iterations 2
GAMG:  Solving for p, Initial residual = 0.0939759, Final residual = 0.00720617, No Iterations 2
GAMG:  Solving for p, Initial residual = 0.163076, Final residual = 0.0110758, No Iterations 1
GAMG:  Solving for p, Initial residual = 0.0572347, Final residual = 0.00286358, No Iterations 2
GAMG:  Solving for p, Initial residual = 0.0407949, Final residual = 0.00284479, No Iterations 1
GAMG:  Solving for p, Initial residual = 0.0166856, Final residual = 0.000818599, No Iterations 2
time step continuity errors : sum local = 1.05131, global = 0.0935756, cumulative = -0.983804
ExecutionTime = 2.01 s  ClockTime = 2 s

Time = 20

smoothSolver:  Solving for Ux, Initial residual = 0.0239373, Final residual = 1.24292e-05, No Iterations 2
smoothSolver:  Solving for Uy, Initial residual = 0.0236473, Final residual = 1.22994e-05, No Iterations 2
smoothSolver:  Solving for Uz, Initial residual = 0.0572914, Final residual = 2.30141e-05, No Iterations 2
GAMG:  Solving for p, Initial residual = 0.123767, Final residual = 0.0114491, No Iterations 2
GAMG:  Solving for p, Initial residual = 0.123398, Final residual = 0.00861438, No Iterations 1
GAMG:  Solving for p, Initial residual = 0.0432785, Final residual = 0.00217983, No Iterations 2
GAMG:  Solving for p, Initial residual = 0.0327724, Final residual = 0.00235372, No Iterations 1
GAMG:  Solving for p, Initial residual = 0.013728, Final residual = 0.000679232, No Iterations 2
time step continuity errors : sum local = 1.22325, global = 0.104992, cumulative = -0.878811
ExecutionTime = 2.1 s  ClockTime = 2 s

Time = 21

smoothSolver:  Solving for Ux, Initial residual = 0.0218932, Final residual = 1.12907e-05, No Iterations 2
smoothSolver:  Solving for Uy, Initial residual = 0.021641, Final residual = 1.13207e-05, No Iterations 2
smoothSolver:  Solving for Uz, Initial residual = 0.0280917, Final residual = 1.40307e-05, No Iterations 2
GAMG:  Solving for p, Initial residual = 0.273133, Final residual = 0.0250483, No Iterations 2
GAMG:  Solving for p, Initial residual = 0.0989772, Final residual = 0.00712869, No Iterations 1
GAMG:  Solving for p, Initial residual = 0.0352023, Final residual = 0.00180262, No Iterations 2
GAMG:  Solving for p, Initial residual = 0.0278876, Final residual = 0.00206143, No Iterations 1
GAMG:  Solving for p, Initial residual = 0.0120242, Final residual = 0.000605609, No Iterations 2
time step continuity errors : sum local = 1.13356, global = 0.0915153, cumulative = -0.787296
ExecutionTime = 2.2 s  ClockTime = 2 s

Time = 22

smoothSolver:  Solving for Ux, Initial residual = 0.0220074, Final residual = 1.10295e-05, No Iterations 2
smoothSolver:  Solving for Uy, Initial residual = 0.0220836, Final residual = 1.1164e-05, No Iterations 2
smoothSolver:  Solving for Uz, Initial residual = 0.0375543, Final residual = 1.67244e-05, No Iterations 2
GAMG:  Solving for p, Initial residual = 0.149792, Final residual = 0.0108542, No Iterations 2
GAMG:  Solving for p, Initial residual = 0.0746418, Final residual = 0.00569508, No Iterations 1
GAMG:  Solving for p, Initial residual = 0.0283085, Final residual = 0.00150154, No Iterations 2
GAMG:  Solving for p, Initial residual = 0.0236189, Final residual = 0.00182326, No Iterations 1
GAMG:  Solving for p, Initial residual = 0.0105961, Final residual = 0.000547463, No Iterations 2
time step continuity errors : sum local = 0.855984, global = 0.0634737, cumulative = -0.723823
ExecutionTime = 2.29 s  ClockTime = 2 s

Time = 23

smoothSolver:  Solving for Ux, Initial residual = 0.0225582, Final residual = 1.07821e-05, No Iterations 2
smoothSolver:  Solving for Uy, Initial residual = 0.0229531, Final residual = 1.10668e-05, No Iterations 2
smoothSolver:  Solving for Uz, Initial residual = 0.0574163, Final residual = 2.18209e-05, No Iterations 2
GAMG:  Solving for p, Initial residual = 0.105259, Final residual = 0.0045479, No Iterations 2
GAMG:  Solving for p, Initial residual = 0.0519139, Final residual = 0.00444044, No Iterations 1
GAMG:  Solving for p, Initial residual = 0.0225743, Final residual = 0.00127107, No Iterations 2
GAMG:  Solving for p, Initial residual = 0.0190722, Final residual = 0.0016129, No Iterations 1
GAMG:  Solving for p, Initial residual = 0.00916697, Final residual = 0.000504713, No Iterations 2
time step continuity errors : sum local = 0.508481, global = 0.0345628, cumulative = -0.68926
ExecutionTime = 2.39 s  ClockTime = 2 s

Time = 24

smoothSolver:  Solving for Ux, Initial residual = 0.0224016, Final residual = 1.04059e-05, No Iterations 2
smoothSolver:  Solving for Uy, Initial residual = 0.0228952, Final residual = 1.06678e-05, No Iterations 2
smoothSolver:  Solving for Uz, Initial residual = 0.065276, Final residual = 2.35089e-05, No Iterations 2
GAMG:  Solving for p, Initial residual = 0.0939637, Final residual = 0.00386952, No Iterations 2
GAMG:  Solving for p, Initial residual = 0.0778866, Final residual = 0.00571649, No Iterations 1
GAMG:  Solving for p, Initial residual = 0.0291125, Final residual = 0.00139935, No Iterations 2
GAMG:  Solving for p, Initial residual = 0.0257205, Final residual = 0.00196958, No Iterations 1
GAMG:  Solving for p, Initial residual = 0.011682, Final residual = 0.000574537, No Iterations 2
time step continuity errors : sum local = 0.258246, global = -0.021692, cumulative = -0.710952
ExecutionTime = 2.48 s  ClockTime = 2 s

Time = 25

smoothSolver:  Solving for Ux, Initial residual = 0.0214082, Final residual = 9.90549e-06, No Iterations 2
smoothSolver:  Solving for Uy, Initial residual = 0.0217401, Final residual = 1.00738e-05, No Iterations 2
smoothSolver:  Solving for Uz, Initial residual = 0.0581177, Final residual = 2.10499e-05, No Iterations 2
GAMG:  Solving for p, Initial residual = 0.0951206, Final residual = 0.00572755, No Iterations 2
GAMG:  Solving for p, Initial residual = 0.180965, Final residual = 0.0120806, No Iterations 1
GAMG:  Solving for p, Initial residual = 0.0608571, Final residual = 0.00298846, No Iterations 2
GAMG:  Solving for p, Initial residual = 0.0414983, Final residual = 0.00281309, No Iterations 1
GAMG:  Solving for p, Initial residual = 0.0166843, Final residual = 0.000812031, No Iterations 2
time step continuity errors : sum local = 0.385687, global = -0.035289, cumulative = -0.746241
ExecutionTime = 2.58 s  ClockTime = 2 s

Time = 26

smoothSolver:  Solving for Ux, Initial residual = 0.019767, Final residual = 9.24971e-06, No Iterations 2
smoothSolver:  Solving for Uy, Initial residual = 0.0199355, Final residual = 9.33452e-06, No Iterations 2
smoothSolver:  Solving for Uz, Initial residual = 0.0396991, Final residual = 1.50906e-05, No Iterations 2
GAMG:  Solving for p, Initial residual = 0.110255, Final residual = 0.00838451, No Iterations 2
GAMG:  Solving for p, Initial residual = 0.127115, Final residual = 0.00866289, No Iterations 1
GAMG:  Solving for p, Initial residual = 0.0435245, Final residual = 0.00217869, No Iterations 2
GAMG:  Solving for p, Initial residual = 0.0327332, Final residual = 0.00228612, No Iterations 1
GAMG:  Solving for p, Initial residual = 0.013414, Final residual = 0.000661042, No Iterations 2
time step continuity errors : sum local = 0.524977, global = -0.046369, cumulative = -0.79261
ExecutionTime = 2.67 s  ClockTime = 2 s

Time = 27

smoothSolver:  Solving for Ux, Initial residual = 0.0181246, Final residual = 8.61378e-06, No Iterations 2
smoothSolver:  Solving for Uy, Initial residual = 0.0182765, Final residual = 8.73001e-06, No Iterations 2
smoothSolver:  Solving for Uz, Initial residual = 0.0216842, Final residual = 9.65263e-06, No Iterations 2
GAMG:  Solving for p, Initial residual = 0.160626, Final residual = 0.0132475, No Iterations 2
GAMG:  Solving for p, Initial residual = 0.102048, Final residual = 0.0071881, No Iterations 1
GAMG:  Solving for p, Initial residual = 0.035608, Final residual = 0.0018059, No Iterations 2
GAMG:  Solving for p, Initial residual = 0.0280746, Final residual = 0.00202616, No Iterations 1
GAMG:  Solving for p, Initial residual = 0.0118388, Final residual = 0.000588691, No Iterations 2
time step continuity errors : sum local = 0.553781, global = -0.0461138, cumulative = -0.838724
ExecutionTime = 2.76 s  ClockTime = 3 s

Time = 28

smoothSolver:  Solving for Ux, Initial residual = 0.0168949, Final residual = 8.16111e-06, No Iterations 2
smoothSolver:  Solving for Uy, Initial residual = 0.0171289, Final residual = 8.36811e-06, No Iterations 2
smoothSolver:  Solving for Uz, Initial residual = 0.0188503, Final residual = 8.64534e-06, No Iterations 2
GAMG:  Solving for p, Initial residual = 0.189821, Final residual = 0.0141931, No Iterations 2
GAMG:  Solving for p, Initial residual = 0.0800675, Final residual = 0.00591522, No Iterations 1
GAMG:  Solving for p, Initial residual = 0.0291634, Final residual = 0.00151912, No Iterations 2
GAMG:  Solving for p, Initial residual = 0.0240851, Final residual = 0.00180591, No Iterations 1
GAMG:  Solving for p, Initial residual = 0.0105197, Final residual = 0.000531971, No Iterations 2
time step continuity errors : sum local = 0.479908, global = -0.0376467, cumulative = -0.87637
ExecutionTime = 2.86 s  ClockTime = 3 s

Time = 29

smoothSolver:  Solving for Ux, Initial residual = 0.0160024, Final residual = 7.86463e-06, No Iterations 2
smoothSolver:  Solving for Uy, Initial residual = 0.016292, Final residual = 8.08531e-06, No Iterations 2
smoothSolver:  Solving for Uz, Initial residual = 0.0263449, Final residual = 1.04093e-05, No Iterations 2
GAMG:  Solving for p, Initial residual = 0.116187, Final residual = 0.00686732, No Iterations 2
GAMG:  Solving for p, Initial residual = 0.0580299, Final residual = 0.00466078, No Iterations 1
GAMG:  Solving for p, Initial residual = 0.0235431, Final residual = 0.00129653, No Iterations 2
GAMG:  Solving for p, Initial residual = 0.0205663, Final residual = 0.00163051, No Iterations 1
GAMG:  Solving for p, Initial residual = 0.00935518, Final residual = 0.000489482, No Iterations 2
time step continuity errors : sum local = 0.346637, global = -0.024567, cumulative = -0.900937
ExecutionTime = 2.95 s  ClockTime = 3 s

Time = 30

smoothSolver:  Solving for Ux, Initial residual = 0.0151604, Final residual = 7.47274e-06, No Iterations 2
smoothSolver:  Solving for Uy, Initial residual = 0.015368, Final residual = 7.66543e-06, No Iterations 2
smoothSolver:  Solving for Uz, Initial residual = 0.0316241, Final residual = 1.16025e-05, No Iterations 2
GAMG:  Solving for p, Initial residual = 0.0952816, Final residual = 0.00359188, No Iterations 2
GAMG:  Solving for p, Initial residual = 0.0478453, Final residual = 0.00440266, No Iterations 1
GAMG:  Solving for p, Initial residual = 0.0201208, Final residual = 0.000916554, No Iterations 2
GAMG:  Solving for p, Initial residual = 0.0145088, Final residual = 0.00141711, No Iterations 1
GAMG:  Solving for p, Initial residual = 0.00771534, Final residual = 0.000350337, No Iterations 2
time step continuity errors : sum local = 0.157212, global = -0.0168898, cumulative = -0.917827
ExecutionTime = 3.05 s  ClockTime = 3 s

Time = 31

smoothSolver:  Solving for Ux, Initial residual = 0.0143276, Final residual = 7.03019e-06, No Iterations 2
smoothSolver:  Solving for Uy, Initial residual = 0.0143268, Final residual = 7.17164e-06, No Iterations 2
smoothSolver:  Solving for Uz, Initial residual = 0.0310683, Final residual = 1.13358e-05, No Iterations 2
GAMG:  Solving for p, Initial residual = 0.0898155, Final residual = 0.00412844, No Iterations 2
GAMG:  Solving for p, Initial residual = 0.101098, Final residual = 0.00703486, No Iterations 1
GAMG:  Solving for p, Initial residual = 0.0363018, Final residual = 0.0017364, No Iterations 2
GAMG:  Solving for p, Initial residual = 0.0363023, Final residual = 0.00257848, No Iterations 1
GAMG:  Solving for p, Initial residual = 0.0155758, Final residual = 0.000756368, No Iterations 2
time step continuity errors : sum local = 0.147395, global = 0.011852, cumulative = -0.905975
ExecutionTime = 3.14 s  ClockTime = 3 s

Time = 32

smoothSolver:  Solving for Ux, Initial residual = 0.0135941, Final residual = 6.56897e-06, No Iterations 2
smoothSolver:  Solving for Uy, Initial residual = 0.0134075, Final residual = 6.64441e-06, No Iterations 2
smoothSolver:  Solving for Uz, Initial residual = 0.0254989, Final residual = 9.59443e-06, No Iterations 2
GAMG:  Solving for p, Initial residual = 0.093053, Final residual = 0.00535612, No Iterations 2
GAMG:  Solving for p, Initial residual = 0.119736, Final residual = 0.00801001, No Iterations 1
GAMG:  Solving for p, Initial residual = 0.0398731, Final residual = 0.00196403, No Iterations 2
GAMG:  Solving for p, Initial residual = 0.0293923, Final residual = 0.00201289, No Iterations 1
GAMG:  Solving for p, Initial residual = 0.011897, Final residual = 0.000585628, No Iterations 2
time step continuity errors : sum local = 0.206958, global = 0.0190442, cumulative = -0.886931
ExecutionTime = 3.24 s  ClockTime = 3 s

Time = 33

smoothSolver:  Solving for Ux, Initial residual = 0.0130771, Final residual = 6.20054e-06, No Iterations 2
smoothSolver:  Solving for Uy, Initial residual = 0.0127842, Final residual = 6.22752e-06, No Iterations 2
smoothSolver:  Solving for Uz, Initial residual = 0.0178876, Final residual = 7.36967e-06, No Iterations 2
GAMG:  Solving for p, Initial residual = 0.107855, Final residual = 0.00695305, No Iterations 2
GAMG:  Solving for p, Initial residual = 0.095026, Final residual = 0.00650084, No Iterations 1
GAMG:  Solving for p, Initial residual = 0.0326855, Final residual = 0.00164128, No Iterations 2
GAMG:  Solving for p, Initial residual = 0.0257546, Final residual = 0.0018174, No Iterations 1
GAMG:  Solving for p, Initial residual = 0.0107096, Final residual = 0.000531871, No Iterations 2
time step continuity errors : sum local = 0.249346, global = 0.0222269, cumulative = -0.864704
ExecutionTime = 3.34 s  ClockTime = 3 s

Time = 34

smoothSolver:  Solving for Ux, Initial residual = 0.0127735, Final residual = 5.88623e-06, No Iterations 2
smoothSolver:  Solving for Uy, Initial residual = 0.0124773, Final residual = 5.91274e-06, No Iterations 2
smoothSolver:  Solving for Uz, Initial residual = 0.0131062, Final residual = 5.8803e-06, No Iterations 2
GAMG:  Solving for p, Initial residual = 0.146945, Final residual = 0.00928889, No Iterations 2
GAMG:  Solving for p, Initial residual = 0.0776433, Final residual = 0.00553766, No Iterations 1
GAMG:  Solving for p, Initial residual = 0.027931, Final residual = 0.00142956, No Iterations 2
GAMG:  Solving for p, Initial residual = 0.0230071, Final residual = 0.00168497, No Iterations 1
GAMG:  Solving for p, Initial residual = 0.0099001, Final residual = 0.000497078, No Iterations 2
time step continuity errors : sum local = 0.246051, global = 0.0205201, cumulative = -0.844184
ExecutionTime = 3.44 s  ClockTime = 3 s

Time = 35

smoothSolver:  Solving for Ux, Initial residual = 0.0126059, Final residual = 5.70429e-06, No Iterations 2
smoothSolver:  Solving for Uy, Initial residual = 0.0123741, Final residual = 5.77269e-06, No Iterations 2
smoothSolver:  Solving for Uz, Initial residual = 0.012771, Final residual = 5.57494e-06, No Iterations 2
GAMG:  Solving for p, Initial residual = 0.137309, Final residual = 0.00764148, No Iterations 2
GAMG:  Solving for p, Initial residual = 0.060826, Final residual = 0.0046199, No Iterations 1
GAMG:  Solving for p, Initial residual = 0.0235924, Final residual = 0.00125672, No Iterations 2
GAMG:  Solving for p, Initial residual = 0.0204289, Final residual = 0.00156599, No Iterations 1
GAMG:  Solving for p, Initial residual = 0.00910345, Final residual = 0.000467817, No Iterations 2
time step continuity errors : sum local = 0.205785, global = 0.0156878, cumulative = -0.828496
ExecutionTime = 3.53 s  ClockTime = 3 s

Time = 36

smoothSolver:  Solving for Ux, Initial residual = 0.0124289, Final residual = 5.55102e-06, No Iterations 2
smoothSolver:  Solving for Uy, Initial residual = 0.0122689, Final residual = 5.58113e-06, No Iterations 2
smoothSolver:  Solving for Uz, Initial residual = 0.0144029, Final residual = 5.80006e-06, No Iterations 2
GAMG:  Solving for p, Initial residual = 0.106693, Final residual = 0.00418181, No Iterations 2
GAMG:  Solving for p, Initial residual = 0.0478367, Final residual = 0.00393993, No Iterations 1
GAMG:  Solving for p, Initial residual = 0.0203174, Final residual = 0.00110517, No Iterations 2
GAMG:  Solving for p, Initial residual = 0.0171883, Final residual = 0.00141597, No Iterations 1
GAMG:  Solving for p, Initial residual = 0.00807555, Final residual = 0.000437425, No Iterations 2
time step continuity errors : sum local = 0.145289, global = 0.0100967, cumulative = -0.818399
ExecutionTime = 3.62 s  ClockTime = 3 s

Time = 37

smoothSolver:  Solving for Ux, Initial residual = 0.0121821, Final residual = 5.39357e-06, No Iterations 2
smoothSolver:  Solving for Uy, Initial residual = 0.0120773, Final residual = 5.40351e-06, No Iterations 2
smoothSolver:  Solving for Uz, Initial residual = 0.0151128, Final residual = 5.79588e-06, No Iterations 2
GAMG:  Solving for p, Initial residual = 0.0962825, Final residual = 0.00304437, No Iterations 2
GAMG:  Solving for p, Initial residual = 0.0506667, Final residual = 0.00409252, No Iterations 1
GAMG:  Solving for p, Initial residual = 0.0198027, Final residual = 0.000877585, No Iterations 2
GAMG:  Solving for p, Initial residual = 0.0149801, Final residual = 0.00128312, No Iterations 1
GAMG:  Solving for p, Initial residual = 0.00729259, Final residual = 0.000328563, No Iterations 2
time step continuity errors : sum local = 0.0727857, global = -0.0104678, cumulative = -0.828867
ExecutionTime = 3.71 s  ClockTime = 4 s

Time = 38

smoothSolver:  Solving for Ux, Initial residual = 0.0118598, Final residual = 5.2239e-06, No Iterations 2
smoothSolver:  Solving for Uy, Initial residual = 0.0117881, Final residual = 5.21802e-06, No Iterations 2
smoothSolver:  Solving for Uz, Initial residual = 0.0141845, Final residual = 5.42541e-06, No Iterations 2
GAMG:  Solving for p, Initial residual = 0.0938795, Final residual = 0.00407041, No Iterations 2
GAMG:  Solving for p, Initial residual = 0.0876571, Final residual = 0.00595395, No Iterations 1
GAMG:  Solving for p, Initial residual = 0.0296032, Final residual = 0.00141371, No Iterations 2
GAMG:  Solving for p, Initial residual = 0.0216764, Final residual = 0.00148982, No Iterations 1
GAMG:  Solving for p, Initial residual = 0.00903818, Final residual = 0.00043356, No Iterations 2
time step continuity errors : sum local = 0.0826998, global = -0.00690981, cumulative = -0.835777
ExecutionTime = 3.81 s  ClockTime = 4 s

Time = 39

smoothSolver:  Solving for Ux, Initial residual = 0.0114793, Final residual = 5.03726e-06, No Iterations 2
smoothSolver:  Solving for Uy, Initial residual = 0.0114498, Final residual = 5.04158e-06, No Iterations 2
smoothSolver:  Solving for Uz, Initial residual = 0.0121177, Final residual = 4.7954e-06, No Iterations 2
GAMG:  Solving for p, Initial residual = 0.0990511, Final residual = 0.00486244, No Iterations 2
GAMG:  Solving for p, Initial residual = 0.0721443, Final residual = 0.00482461, No Iterations 1
GAMG:  Solving for p, Initial residual = 0.0242138, Final residual = 0.00119386, No Iterations 2
GAMG:  Solving for p, Initial residual = 0.0193319, Final residual = 0.00132396, No Iterations 1
GAMG:  Solving for p, Initial residual = 0.00792544, Final residual = 0.000389325, No Iterations 2
time step continuity errors : sum local = 0.104709, global = -0.00957584, cumulative = -0.845353
ExecutionTime = 3.9 s  ClockTime = 4 s

Time = 40

smoothSolver:  Solving for Ux, Initial residual = 0.0111167, Final residual = 4.8636e-06, No Iterations 2
smoothSolver:  Solving for Uy, Initial residual = 0.0111145, Final residual = 4.87297e-06, No Iterations 2
smoothSolver:  Solving for Uz, Initial residual = 0.0103941, Final residual = 4.27946e-06, No Iterations 2
GAMG:  Solving for p, Initial residual = 0.11396, Final residual = 0.00571885, No Iterations 2
GAMG:  Solving for p, Initial residual = 0.0614567, Final residual = 0.00421436, No Iterations 1
GAMG:  Solving for p, Initial residual = 0.0212965, Final residual = 0.00107414, No Iterations 2
GAMG:  Solving for p, Initial residual = 0.0178792, Final residual = 0.00125959, No Iterations 1
GAMG:  Solving for p, Initial residual = 0.00750419, Final residual = 0.000371801, No Iterations 2
time step continuity errors : sum local = 0.114903, global = -0.0102086, cumulative = -0.855561
ExecutionTime = 4 s  ClockTime = 4 s

Time = 41

smoothSolver:  Solving for Ux, Initial residual = 0.0108093, Final residual = 4.7202e-06, No Iterations 2
smoothSolver:  Solving for Uy, Initial residual = 0.0107939, Final residual = 4.73961e-06, No Iterations 2
smoothSolver:  Solving for Uz, Initial residual = 0.00988616, Final residual = 4.09353e-06, No Iterations 2
GAMG:  Solving for p, Initial residual = 0.121961, Final residual = 0.00570218, No Iterations 2
GAMG:  Solving for p, Initial residual = 0.0500884, Final residual = 0.00357694, No Iterations 1
GAMG:  Solving for p, Initial residual = 0.0182543, Final residual = 0.000941362, No Iterations 2
GAMG:  Solving for p, Initial residual = 0.0159471, Final residual = 0.00116661, No Iterations 1
GAMG:  Solving for p, Initial residual = 0.00689154, Final residual = 0.000344102, No Iterations 2
time step continuity errors : sum local = 0.106592, global = -0.00894052, cumulative = -0.864502
ExecutionTime = 4.09 s  ClockTime = 4 s

Time = 42

smoothSolver:  Solving for Ux, Initial residual = 0.0105216, Final residual = 4.57477e-06, No Iterations 2
smoothSolver:  Solving for Uy, Initial residual = 0.0104718, Final residual = 4.57607e-06, No Iterations 2
smoothSolver:  Solving for Uz, Initial residual = 0.0102716, Final residual = 4.12165e-06, No Iterations 2
GAMG:  Solving for p, Initial residual = 0.0969189, Final residual = 0.00875045, No Iterations 1
GAMG:  Solving for p, Initial residual = 0.0338792, Final residual = 0.00179312, No Iterations 2
GAMG:  Solving for p, Initial residual = 0.0251769, Final residual = 0.00189121, No Iterations 1
GAMG:  Solving for p, Initial residual = 0.0105456, Final residual = 0.000541754, No Iterations 2
GAMG:  Solving for p, Initial residual = 0.0094617, Final residual = 0.00073177, No Iterations 1
time step continuity errors : sum local = 0.20447, global = -0.0510675, cumulative = -0.915569
ExecutionTime = 4.18 s  ClockTime = 4 s

Time = 43

smoothSolver:  Solving for Ux, Initial residual = 0.0102552, Final residual = 4.43833e-06, No Iterations 2
smoothSolver:  Solving for Uy, Initial residual = 0.0101427, Final residual = 4.41097e-06, No Iterations 2
smoothSolver:  Solving for Uz, Initial residual = 0.0106333, Final residual = 4.1594e-06, No Iterations 2
GAMG:  Solving for p, Initial residual = 0.0853864, Final residual = 0.00827792, No Iterations 1
GAMG:  Solving for p, Initial residual = 0.0290945, Final residual = 0.00124921, No Iterations 2
GAMG:  Solving for p, Initial residual = 0.0181062, Final residual = 0.00153354, No Iterations 1
GAMG:  Solving for p, Initial residual = 0.00845371, Final residual = 0.000439598, No Iterations 2
GAMG:  Solving for p, Initial residual = 0.00713371, Final residual = 0.000607038, No Iterations 1
time step continuity errors : sum local = 0.137188, global = -0.0275981, cumulative = -0.943167
ExecutionTime = 4.27 s  ClockTime = 4 s

Time = 44

smoothSolver:  Solving for Ux, Initial residual = 0.0100237, Final residual = 4.33406e-06, No Iterations 2
smoothSolver:  Solving for Uy, Initial residual = 0.00982589, Final residual = 4.25002e-06, No Iterations 2
smoothSolver:  Solving for Uz, Initial residual = 0.0105221, Final residual = 4.07871e-06, No Iterations 2
GAMG:  Solving for p, Initial residual = 0.0805987, Final residual = 0.00705172, No Iterations 1
GAMG:  Solving for p, Initial residual = 0.0281512, Final residual = 0.00129699, No Iterations 2
GAMG:  Solving for p, Initial residual = 0.0210369, Final residual = 0.00151938, No Iterations 1
GAMG:  Solving for p, Initial residual = 0.00847914, Final residual = 0.000389983, No Iterations 2
GAMG:  Solving for p, Initial residual = 0.00665379, Final residual = 0.000519206, No Iterations 1
time step continuity errors : sum local = 0.0909434, global = 0.0162331, cumulative = -0.926934
ExecutionTime = 4.35 s  ClockTime = 4 s

Time = 45

smoothSolver:  Solving for Ux, Initial residual = 0.00982164, Final residual = 4.20854e-06, No Iterations 2
smoothSolver:  Solving for Uy, Initial residual = 0.00954884, Final residual = 4.10627e-06, No Iterations 2
smoothSolver:  Solving for Uz, Initial residual = 0.0100167, Final residual = 3.90651e-06, No Iterations 2
GAMG:  Solving for p, Initial residual = 0.0792993, Final residual = 0.00656749, No Iterations 1
GAMG:  Solving for p, Initial residual = 0.0340107, Final residual = 0.00169139, No Iterations 2
GAMG:  Solving for p, Initial residual = 0.0301039, Final residual = 0.00193646, No Iterations 1
GAMG:  Solving for p, Initial residual = 0.0111107, Final residual = 0.000528431, No Iterations 2
GAMG:  Solving for p, Initial residual = 0.00910592, Final residual = 0.000628964, No Iterations 1
time step continuity errors : sum local = 0.102328, global = 0.0280785, cumulative = -0.898856
ExecutionTime = 4.45 s  ClockTime = 4 s

Time = 46

smoothSolver:  Solving for Ux, Initial residual = 0.00965048, Final residual = 4.10278e-06, No Iterations 2
smoothSolver:  Solving for Uy, Initial residual = 0.00933134, Final residual = 3.98548e-06, No Iterations 2
smoothSolver:  Solving for Uz, Initial residual = 0.00931335, Final residual = 3.66724e-06, No Iterations 2
GAMG:  Solving for p, Initial residual = 0.0814939, Final residual = 0.00717855, No Iterations 1
GAMG:  Solving for p, Initial residual = 0.0423264, Final residual = 0.00213646, No Iterations 2
GAMG:  Solving for p, Initial residual = 0.0272217, Final residual = 0.00178249, No Iterations 1
GAMG:  Solving for p, Initial residual = 0.0103148, Final residual = 0.00050258, No Iterations 2
GAMG:  Solving for p, Initial residual = 0.00898434, Final residual = 0.000629563, No Iterations 1
time step continuity errors : sum local = 0.12311, global = 0.0345338, cumulative = -0.864322
ExecutionTime = 4.54 s  ClockTime = 4 s

Time = 47

smoothSolver:  Solving for Ux, Initial residual = 0.00950934, Final residual = 4.00643e-06, No Iterations 2
smoothSolver:  Solving for Uy, Initial residual = 0.00916994, Final residual = 3.89051e-06, No Iterations 2
smoothSolver:  Solving for Uz, Initial residual = 0.00874079, Final residual = 3.4564e-06, No Iterations 2
GAMG:  Solving for p, Initial residual = 0.0866547, Final residual = 0.00743703, No Iterations 1
GAMG:  Solving for p, Initial residual = 0.0375537, Final residual = 0.00189549, No Iterations 2
GAMG:  Solving for p, Initial residual = 0.024836, Final residual = 0.00169227, No Iterations 1
GAMG:  Solving for p, Initial residual = 0.00972135, Final residual = 0.000478076, No Iterations 2
GAMG:  Solving for p, Initial residual = 0.00862395, Final residual = 0.000621669, No Iterations 1
time step continuity errors : sum local = 0.129737, global = 0.0356778, cumulative = -0.828644
ExecutionTime = 4.63 s  ClockTime = 4 s

Time = 48

smoothSolver:  Solving for Ux, Initial residual = 0.00938373, Final residual = 3.905e-06, No Iterations 2
smoothSolver:  Solving for Uy, Initial residual = 0.00904594, Final residual = 3.80767e-06, No Iterations 2
smoothSolver:  Solving for Uz, Initial residual = 0.00842182, Final residual = 3.30842e-06, No Iterations 2
GAMG:  Solving for p, Initial residual = 0.0939974, Final residual = 0.00735488, No Iterations 1
GAMG:  Solving for p, Initial residual = 0.0313078, Final residual = 0.00157, No Iterations 2
GAMG:  Solving for p, Initial residual = 0.0222369, Final residual = 0.00159181, No Iterations 1
GAMG:  Solving for p, Initial residual = 0.00900233, Final residual = 0.000447338, No Iterations 2
GAMG:  Solving for p, Initial residual = 0.0079976, Final residual = 0.00059768, No Iterations 1
time step continuity errors : sum local = 0.121124, global = 0.0322096, cumulative = -0.796435
ExecutionTime = 4.73 s  ClockTime = 5 s

Time = 49

smoothSolver:  Solving for Ux, Initial residual = 0.00925413, Final residual = 3.82769e-06, No Iterations 2
smoothSolver:  Solving for Uy, Initial residual = 0.00893945, Final residual = 3.73614e-06, No Iterations 2
smoothSolver:  Solving for Uz, Initial residual = 0.00829713, Final residual = 3.21813e-06, No Iterations 2
GAMG:  Solving for p, Initial residual = 0.0916157, Final residual = 0.00739075, No Iterations 1
GAMG:  Solving for p, Initial residual = 0.0274375, Final residual = 0.00128568, No Iterations 2
GAMG:  Solving for p, Initial residual = 0.0182073, Final residual = 0.00139968, No Iterations 1
GAMG:  Solving for p, Initial residual = 0.00780835, Final residual = 0.000399793, No Iterations 2
GAMG:  Solving for p, Initial residual = 0.00691931, Final residual = 0.000544531, No Iterations 1
time step continuity errors : sum local = 0.0996061, global = 0.0238474, cumulative = -0.772587
ExecutionTime = 4.81 s  ClockTime = 5 s

Time = 50

smoothSolver:  Solving for Ux, Initial residual = 0.00911885, Final residual = 3.75027e-06, No Iterations 2
smoothSolver:  Solving for Uy, Initial residual = 0.00882504, Final residual = 3.65573e-06, No Iterations 2
smoothSolver:  Solving for Uz, Initial residual = 0.0082173, Final residual = 3.14949e-06, No Iterations 2
GAMG:  Solving for p, Initial residual = 0.0854238, Final residual = 0.00691105, No Iterations 1
GAMG:  Solving for p, Initial residual = 0.0256709, Final residual = 0.00100435, No Iterations 2
GAMG:  Solving for p, Initial residual = 0.0140171, Final residual = 0.00125313, No Iterations 1
GAMG:  Solving for p, Initial residual = 0.00651867, Final residual = 0.000290547, No Iterations 2
GAMG:  Solving for p, Initial residual = 0.00487945, Final residual = 0.000435084, No Iterations 1
time step continuity errors : sum local = 0.0683235, global = 0.00990642, cumulative = -0.762681
ExecutionTime = 4.9 s  ClockTime = 5 s

Time = 51

smoothSolver:  Solving for Ux, Initial residual = 0.00897185, Final residual = 3.66752e-06, No Iterations 2
smoothSolver:  Solving for Uy, Initial residual = 0.00870285, Final residual = 3.57672e-06, No Iterations 2
smoothSolver:  Solving for Uz, Initial residual = 0.00809192, Final residual = 3.07216e-06, No Iterations 2
GAMG:  Solving for p, Initial residual = 0.0829105, Final residual = 0.00618907, No Iterations 1
GAMG:  Solving for p, Initial residual = 0.0250726, Final residual = 0.00102816, No Iterations 2
GAMG:  Solving for p, Initial residual = 0.0161633, Final residual = 0.00115638, No Iterations 1
GAMG:  Solving for p, Initial residual = 0.00645398, Final residual = 0.000295149, No Iterations 2
GAMG:  Solving for p, Initial residual = 0.00488929, Final residual = 0.000375161, No Iterations 1
time step continuity errors : sum local = 0.0553832, global = -0.0113611, cumulative = -0.774042
ExecutionTime = 4.99 s  ClockTime = 5 s

Time = 52

smoothSolver:  Solving for Ux, Initial residual = 0.00882344, Final residual = 3.58275e-06, No Iterations 2
smoothSolver:  Solving for Uy, Initial residual = 0.00857552, Final residual = 3.50463e-06, No Iterations 2
smoothSolver:  Solving for Uz, Initial residual = 0.0079269, Final residual = 2.99729e-06, No Iterations 2
GAMG:  Solving for p, Initial residual = 0.0827239, Final residual = 0.00572658, No Iterations 1
GAMG:  Solving for p, Initial residual = 0.0258926, Final residual = 0.001195, No Iterations 2
GAMG:  Solving for p, Initial residual = 0.0164136, Final residual = 0.00107309, No Iterations 1
GAMG:  Solving for p, Initial residual = 0.00614434, Final residual = 0.000290604, No Iterations 2
GAMG:  Solving for p, Initial residual = 0.00506437, Final residual = 0.000353537, No Iterations 1
time step continuity errors : sum local = 0.0597607, global = -0.0170078, cumulative = -0.79105
ExecutionTime = 5.09 s  ClockTime = 5 s

Time = 53

smoothSolver:  Solving for Ux, Initial residual = 0.00867327, Final residual = 3.51204e-06, No Iterations 2
smoothSolver:  Solving for Uy, Initial residual = 0.00843525, Final residual = 3.43934e-06, No Iterations 2
smoothSolver:  Solving for Uz, Initial residual = 0.0077576, Final residual = 2.93527e-06, No Iterations 2
GAMG:  Solving for p, Initial residual = 0.0845536, Final residual = 0.00574507, No Iterations 1
GAMG:  Solving for p, Initial residual = 0.0237302, Final residual = 0.00113368, No Iterations 2
GAMG:  Solving for p, Initial residual = 0.015824, Final residual = 0.00104028, No Iterations 1
GAMG:  Solving for p, Initial residual = 0.00596335, Final residual = 0.00028875, No Iterations 2
GAMG:  Solving for p, Initial residual = 0.00515982, Final residual = 0.000360363, No Iterations 1
time step continuity errors : sum local = 0.065975, global = -0.0197041, cumulative = -0.810754
ExecutionTime = 5.17 s  ClockTime = 5 s

Time = 54

smoothSolver:  Solving for Ux, Initial residual = 0.00852566, Final residual = 3.44649e-06, No Iterations 2
smoothSolver:  Solving for Uy, Initial residual = 0.00828066, Final residual = 3.3725e-06, No Iterations 2
smoothSolver:  Solving for Uz, Initial residual = 0.00762732, Final residual = 2.88811e-06, No Iterations 2
GAMG:  Solving for p, Initial residual = 0.0797264, Final residual = 0.00535776, No Iterations 1
GAMG:  Solving for p, Initial residual = 0.0214084, Final residual = 0.00101558, No Iterations 2
GAMG:  Solving for p, Initial residual = 0.0146004, Final residual = 0.000989043, No Iterations 1
GAMG:  Solving for p, Initial residual = 0.00565556, Final residual = 0.000276099, No Iterations 2
GAMG:  Solving for p, Initial residual = 0.00499813, Final residual = 0.000355869, No Iterations 1
time step continuity errors : sum local = 0.0670526, global = -0.0197112, cumulative = -0.830465
ExecutionTime = 5.27 s  ClockTime = 5 s

Time = 55

smoothSolver:  Solving for Ux, Initial residual = 0.00838047, Final residual = 3.38288e-06, No Iterations 2
smoothSolver:  Solving for Uy, Initial residual = 0.00812455, Final residual = 3.2968e-06, No Iterations 2
smoothSolver:  Solving for Uz, Initial residual = 0.00754168, Final residual = 2.85573e-06, No Iterations 2
GAMG:  Solving for p, Initial residual = 0.0737827, Final residual = 0.00501087, No Iterations 1
GAMG:  Solving for p, Initial residual = 0.0195855, Final residual = 0.000867326, No Iterations 2
GAMG:  Solving for p, Initial residual = 0.01259, Final residual = 0.000888434, No Iterations 1
GAMG:  Solving for p, Initial residual = 0.00506781, Final residual = 0.000248207, No Iterations 2
GAMG:  Solving for p, Initial residual = 0.00449722, Final residual = 0.00033079, No Iterations 1
time step continuity errors : sum local = 0.0612711, global = -0.0171355, cumulative = -0.847601
ExecutionTime = 5.37 s  ClockTime = 5 s

Time = 56

smoothSolver:  Solving for Ux, Initial residual = 0.00824044, Final residual = 3.33028e-06, No Iterations 2
smoothSolver:  Solving for Uy, Initial residual = 0.00796571, Final residual = 3.23798e-06, No Iterations 2
smoothSolver:  Solving for Uz, Initial residual = 0.00746926, Final residual = 2.83635e-06, No Iterations 2
GAMG:  Solving for p, Initial residual = 0.0697051, Final residual = 0.00481819, No Iterations 1
GAMG:  Solving for p, Initial residual = 0.0185271, Final residual = 0.00182414, No Iterations 1
GAMG:  Solving for p, Initial residual = 0.00838457, Final residual = 0.000400532, No Iterations 2
GAMG:  Solving for p, Initial residual = 0.00634852, Final residual = 0.000482135, No Iterations 1
GAMG:  Solving for p, Initial residual = 0.00281045, Final residual = 0.000139572, No Iterations 2
time step continuity errors : sum local = 0.024325, global = -0.00214191, cumulative = -0.849742
ExecutionTime = 5.46 s  ClockTime = 5 s

Time = 57

smoothSolver:  Solving for Ux, Initial residual = 0.00810692, Final residual = 3.28446e-06, No Iterations 2
smoothSolver:  Solving for Uy, Initial residual = 0.00780866, Final residual = 3.17123e-06, No Iterations 2
smoothSolver:  Solving for Uz, Initial residual = 0.00737876, Final residual = 2.8085e-06, No Iterations 2
GAMG:  Solving for p, Initial residual = 0.0669797, Final residual = 0.00451631, No Iterations 1
GAMG:  Solving for p, Initial residual = 0.0177877, Final residual = 0.000563375, No Iterations 2
GAMG:  Solving for p, Initial residual = 0.00822616, Final residual = 0.000676921, No Iterations 1
GAMG:  Solving for p, Initial residual = 0.00363324, Final residual = 0.000145388, No Iterations 2
GAMG:  Solving for p, Initial residual = 0.00245279, Final residual = 0.000216671, No Iterations 1
time step continuity errors : sum local = 0.035778, global = -0.00421503, cumulative = -0.853958
ExecutionTime = 5.55 s  ClockTime = 5 s

Time = 58

smoothSolver:  Solving for Ux, Initial residual = 0.00798337, Final residual = 3.22694e-06, No Iterations 2
smoothSolver:  Solving for Uy, Initial residual = 0.00766647, Final residual = 3.11179e-06, No Iterations 2
smoothSolver:  Solving for Uz, Initial residual = 0.00726306, Final residual = 2.75883e-06, No Iterations 2
GAMG:  Solving for p, Initial residual = 0.0655218, Final residual = 0.00420184, No Iterations 1
GAMG:  Solving for p, Initial residual = 0.0173081, Final residual = 0.00158659, No Iterations 1
GAMG:  Solving for p, Initial residual = 0.00740059, Final residual = 0.000339455, No Iterations 2
GAMG:  Solving for p, Initial residual = 0.0054558, Final residual = 0.000379396, No Iterations 1
GAMG:  Solving for p, Initial residual = 0.00227562, Final residual = 0.0001027, No Iterations 2
time step continuity errors : sum local = 0.016046, global = 0.00146788, cumulative = -0.85249
ExecutionTime = 5.64 s  ClockTime = 5 s

Time = 59

smoothSolver:  Solving for Ux, Initial residual = 0.00787161, Final residual = 3.17847e-06, No Iterations 2
smoothSolver:  Solving for Uy, Initial residual = 0.00753461, Final residual = 3.04882e-06, No Iterations 2
smoothSolver:  Solving for Uz, Initial residual = 0.00713323, Final residual = 2.70312e-06, No Iterations 2
GAMG:  Solving for p, Initial residual = 0.0647248, Final residual = 0.00394186, No Iterations 1
GAMG:  Solving for p, Initial residual = 0.0170691, Final residual = 0.00155832, No Iterations 1
GAMG:  Solving for p, Initial residual = 0.00818177, Final residual = 0.000382379, No Iterations 2
GAMG:  Solving for p, Initial residual = 0.0065041, Final residual = 0.000432963, No Iterations 1
GAMG:  Solving for p, Initial residual = 0.00262179, Final residual = 0.000122186, No Iterations 2
time step continuity errors : sum local = 0.0180097, global = 0.00171777, cumulative = -0.850772
ExecutionTime = 5.73 s  ClockTime = 6 s

Time = 60

smoothSolver:  Solving for Ux, Initial residual = 0.00776703, Final residual = 3.13461e-06, No Iterations 2
smoothSolver:  Solving for Uy, Initial residual = 0.00742085, Final residual = 2.995e-06, No Iterations 2
smoothSolver:  Solving for Uz, Initial residual = 0.00700332, Final residual = 2.64795e-06, No Iterations 2
GAMG:  Solving for p, Initial residual = 0.0648171, Final residual = 0.003856, No Iterations 1
GAMG:  Solving for p, Initial residual = 0.017038, Final residual = 0.00160494, No Iterations 1
GAMG:  Solving for p, Initial residual = 0.00862314, Final residual = 0.000407998, No Iterations 2
GAMG:  Solving for p, Initial residual = 0.00696958, Final residual = 0.00047352, No Iterations 1
GAMG:  Solving for p, Initial residual = 0.00284577, Final residual = 0.00013568, No Iterations 2
time step continuity errors : sum local = 0.019361, global = 0.00190844, cumulative = -0.848863
ExecutionTime = 5.82 s  ClockTime = 6 s

Time = 61

smoothSolver:  Solving for Ux, Initial residual = 0.00766659, Final residual = 3.08274e-06, No Iterations 2
smoothSolver:  Solving for Uy, Initial residual = 0.00732008, Final residual = 2.94762e-06, No Iterations 2
smoothSolver:  Solving for Uz, Initial residual = 0.00688551, Final residual = 2.60474e-06, No Iterations 2
GAMG:  Solving for p, Initial residual = 0.0651902, Final residual = 0.00387879, No Iterations 1
GAMG:  Solving for p, Initial residual = 0.0170221, Final residual = 0.00155946, No Iterations 1
GAMG:  Solving for p, Initial residual = 0.00824509, Final residual = 0.000392771, No Iterations 2
GAMG:  Solving for p, Initial residual = 0.00673171, Final residual = 0.000470734, No Iterations 1
GAMG:  Solving for p, Initial residual = 0.00279953, Final residual = 0.000135767, No Iterations 2
time step continuity errors : sum local = 0.0193379, global = 0.00180904, cumulative = -0.847054
ExecutionTime = 5.91 s  ClockTime = 6 s

Time = 62

smoothSolver:  Solving for Ux, Initial residual = 0.00756979, Final residual = 3.04676e-06, No Iterations 2
smoothSolver:  Solving for Uy, Initial residual = 0.00722337, Final residual = 2.90601e-06, No Iterations 2
smoothSolver:  Solving for Uz, Initial residual = 0.00678269, Final residual = 2.56953e-06, No Iterations 2
GAMG:  Solving for p, Initial residual = 0.0656441, Final residual = 0.00394662, No Iterations 1
GAMG:  Solving for p, Initial residual = 0.0169803, Final residual = 0.00150731, No Iterations 1
GAMG:  Solving for p, Initial residual = 0.00735802, Final residual = 0.000346987, No Iterations 2
GAMG:  Solving for p, Initial residual = 0.00588508, Final residual = 0.000430077, No Iterations 1
GAMG:  Solving for p, Initial residual = 0.00252936, Final residual = 0.000125564, No Iterations 2
time step continuity errors : sum local = 0.0179187, global = 0.00147888, cumulative = -0.845575
ExecutionTime = 6 s  ClockTime = 6 s

Time = 63

smoothSolver:  Solving for Ux, Initial residual = 0.00746637, Final residual = 2.99652e-06, No Iterations 2
smoothSolver:  Solving for Uy, Initial residual = 0.00712831, Final residual = 2.83877e-06, No Iterations 2
smoothSolver:  Solving for Uz, Initial residual = 0.00668981, Final residual = 2.52895e-06, No Iterations 2
GAMG:  Solving for p, Initial residual = 0.0655572, Final residual = 0.00394074, No Iterations 1
GAMG:  Solving for p, Initial residual = 0.0168683, Final residual = 0.00156202, No Iterations 1
GAMG:  Solving for p, Initial residual = 0.00680974, Final residual = 0.000292218, No Iterations 2
GAMG:  Solving for p, Initial residual = 0.00451898, Final residual = 0.000356548, No Iterations 1
GAMG:  Solving for p, Initial residual = 0.00208815, Final residual = 0.000106003, No Iterations 2
time step continuity errors : sum local = 0.0154915, global = 0.0011295, cumulative = -0.844446
ExecutionTime = 6.09 s  ClockTime = 6 s

Time = 64

smoothSolver:  Solving for Ux, Initial residual = 0.007367, Final residual = 2.95066e-06, No Iterations 2
smoothSolver:  Solving for Uy, Initial residual = 0.007027, Final residual = 2.80676e-06, No Iterations 2
smoothSolver:  Solving for Uz, Initial residual = 0.00660598, Final residual = 2.49673e-06, No Iterations 2
GAMG:  Solving for p, Initial residual = 0.0649687, Final residual = 0.00385091, No Iterations 1
GAMG:  Solving for p, Initial residual = 0.0166102, Final residual = 0.00152079, No Iterations 1
GAMG:  Solving for p, Initial residual = 0.00662144, Final residual = 0.000260687, No Iterations 2
GAMG:  Solving for p, Initial residual = 0.00387045, Final residual = 0.00033657, No Iterations 1
GAMG:  Solving for p, Initial residual = 0.00187461, Final residual = 8.16644e-05, No Iterations 2
time step continuity errors : sum local = 0.0122012, global = -0.00207717, cumulative = -0.846523
ExecutionTime = 6.18 s  ClockTime = 6 s

Time = 65

smoothSolver:  Solving for Ux, Initial residual = 0.00726856, Final residual = 2.90135e-06, No Iterations 2
smoothSolver:  Solving for Uy, Initial residual = 0.00693138, Final residual = 2.76495e-06, No Iterations 2
smoothSolver:  Solving for Uz, Initial residual = 0.00652835, Final residual = 2.47377e-06, No Iterations 2
GAMG:  Solving for p, Initial residual = 0.063863, Final residual = 0.00371195, No Iterations 1
GAMG:  Solving for p, Initial residual = 0.016148, Final residual = 0.0014125, No Iterations 1
GAMG:  Solving for p, Initial residual = 0.00643786, Final residual = 0.000282774, No Iterations 2
GAMG:  Solving for p, Initial residual = 0.00422754, Final residual = 0.000315211, No Iterations 1
GAMG:  Solving for p, Initial residual = 0.00185977, Final residual = 8.92677e-05, No Iterations 2
time step continuity errors : sum local = 0.0137074, global = -0.00146367, cumulative = -0.847987
ExecutionTime = 6.28 s  ClockTime = 6 s

Time = 66

smoothSolver:  Solving for Ux, Initial residual = 0.00716794, Final residual = 2.85493e-06, No Iterations 2
smoothSolver:  Solving for Uy, Initial residual = 0.00683168, Final residual = 2.72818e-06, No Iterations 2
smoothSolver:  Solving for Uz, Initial residual = 0.00645042, Final residual = 2.44571e-06, No Iterations 2
GAMG:  Solving for p, Initial residual = 0.0623022, Final residual = 0.00355836, No Iterations 1
GAMG:  Solving for p, Initial residual = 0.0156293, Final residual = 0.00132452, No Iterations 1
GAMG:  Solving for p, Initial residual = 0.00633364, Final residual = 0.000297748, No Iterations 2
GAMG:  Solving for p, Initial residual = 0.00446379, Final residual = 0.000316993, No Iterations 1
GAMG:  Solving for p, Initial residual = 0.00188907, Final residual = 9.2491e-05, No Iterations 2
time step continuity errors : sum local = 0.0145822, global = -0.0014065, cumulative = -0.849393
ExecutionTime = 6.37 s  ClockTime = 6 s

Time = 67

smoothSolver:  Solving for Ux, Initial residual = 0.0070685, Final residual = 2.80487e-06, No Iterations 2
smoothSolver:  Solving for Uy, Initial residual = 0.0067284, Final residual = 2.6749e-06, No Iterations 2
smoothSolver:  Solving for Uz, Initial residual = 0.0063727, Final residual = 2.40505e-06, No Iterations 2
GAMG:  Solving for p, Initial residual = 0.0606296, Final residual = 0.00343602, No Iterations 1
GAMG:  Solving for p, Initial residual = 0.0151002, Final residual = 0.00127404, No Iterations 1
GAMG:  Solving for p, Initial residual = 0.0061572, Final residual = 0.000293752, No Iterations 2
GAMG:  Solving for p, Initial residual = 0.00442283, Final residual = 0.000313981, No Iterations 1
GAMG:  Solving for p, Initial residual = 0.0018608, Final residual = 9.23644e-05, No Iterations 2
time step continuity errors : sum local = 0.014809, global = -0.00142214, cumulative = -0.850815
ExecutionTime = 6.45 s  ClockTime = 6 s

Time = 68

smoothSolver:  Solving for Ux, Initial residual = 0.00697357, Final residual = 2.76604e-06, No Iterations 2
smoothSolver:  Solving for Uy, Initial residual = 0.00662274, Final residual = 2.6354e-06, No Iterations 2
smoothSolver:  Solving for Uz, Initial residual = 0.00629642, Final residual = 2.37782e-06, No Iterations 2
GAMG:  Solving for p, Initial residual = 0.0589361, Final residual = 0.00335119, No Iterations 1
GAMG:  Solving for p, Initial residual = 0.0146705, Final residual = 0.00123571, No Iterations 1
GAMG:  Solving for p, Initial residual = 0.00586625, Final residual = 0.000277817, No Iterations 2
GAMG:  Solving for p, Initial residual = 0.00416367, Final residual = 0.000300184, No Iterations 1
GAMG:  Solving for p, Initial residual = 0.0017735, Final residual = 8.87726e-05, No Iterations 2
time step continuity errors : sum local = 0.014314, global = -0.00135335, cumulative = -0.852169
ExecutionTime = 6.55 s  ClockTime = 6 s

Time = 69

smoothSolver:  Solving for Ux, Initial residual = 0.00688129, Final residual = 2.73298e-06, No Iterations 2
smoothSolver:  Solving for Uy, Initial residual = 0.00651677, Final residual = 2.57756e-06, No Iterations 2
smoothSolver:  Solving for Uz, Initial residual = 0.00622276, Final residual = 2.3378e-06, No Iterations 2
GAMG:  Solving for p, Initial residual = 0.0575166, Final residual = 0.00328927, No Iterations 1
GAMG:  Solving for p, Initial residual = 0.0143621, Final residual = 0.00121689, No Iterations 1
GAMG:  Solving for p, Initial residual = 0.00558633, Final residual = 0.000252385, No Iterations 2
GAMG:  Solving for p, Initial residual = 0.00370322, Final residual = 0.000274794, No Iterations 1
GAMG:  Solving for p, Initial residual = 0.00162641, Final residual = 8.21532e-05, No Iterations 2
time step continuity errors : sum local = 0.0131917, global = -0.00120522, cumulative = -0.853374
ExecutionTime = 6.64 s  ClockTime = 6 s

Time = 70

smoothSolver:  Solving for Ux, Initial residual = 0.00679163, Final residual = 2.69864e-06, No Iterations 2
smoothSolver:  Solving for Uy, Initial residual = 0.00641423, Final residual = 2.55956e-06, No Iterations 2
smoothSolver:  Solving for Uz, Initial residual = 0.00614771, Final residual = 2.31838e-06, No Iterations 2
GAMG:  Solving for p, Initial residual = 0.0563529, Final residual = 0.00322557, No Iterations 1
GAMG:  Solving for p, Initial residual = 0.0141282, Final residual = 0.00120349, No Iterations 1
GAMG:  Solving for p, Initial residual = 0.00542121, Final residual = 0.00020886, No Iterations 2
GAMG:  Solving for p, Initial residual = 0.00315433, Final residual = 0.000244634, No Iterations 1
GAMG:  Solving for p, Initial residual = 0.00145582, Final residual = 7.32289e-05, No Iterations 2
time step continuity errors : sum local = 0.0116591, global = -0.00107195, cumulative = -0.854446
ExecutionTime = 6.72 s  ClockTime = 7 s

Time = 71

smoothSolver:  Solving for Ux, Initial residual = 0.00670443, Final residual = 2.65939e-06, No Iterations 2
smoothSolver:  Solving for Uy, Initial residual = 0.00631737, Final residual = 2.52428e-06, No Iterations 2
smoothSolver:  Solving for Uz, Initial residual = 0.0060741, Final residual = 2.289e-06, No Iterations 2
GAMG:  Solving for p, Initial residual = 0.0555092, Final residual = 0.00316374, No Iterations 1
GAMG:  Solving for p, Initial residual = 0.0139269, Final residual = 0.00117782, No Iterations 1
GAMG:  Solving for p, Initial residual = 0.00531556, Final residual = 0.000182778, No Iterations 2
GAMG:  Solving for p, Initial residual = 0.00284374, Final residual = 0.000229407, No Iterations 1
GAMG:  Solving for p, Initial residual = 0.00133912, Final residual = 5.44466e-05, No Iterations 2
time step continuity errors : sum local = 0.00860772, global = -0.00163348, cumulative = -0.856079
ExecutionTime = 6.82 s  ClockTime = 7 s

Time = 72

smoothSolver:  Solving for Ux, Initial residual = 0.00662382, Final residual = 2.63253e-06, No Iterations 2
smoothSolver:  Solving for Uy, Initial residual = 0.00622628, Final residual = 2.49695e-06, No Iterations 2
smoothSolver:  Solving for Uz, Initial residual = 0.00600204, Final residual = 2.26507e-06, No Iterations 2
GAMG:  Solving for p, Initial residual = 0.0548492, Final residual = 0.00310279, No Iterations 1
GAMG:  Solving for p, Initial residual = 0.0137459, Final residual = 0.00114905, No Iterations 1
GAMG:  Solving for p, Initial residual = 0.00521694, Final residual = 0.000172508, No Iterations 2
GAMG:  Solving for p, Initial residual = 0.00278779, Final residual = 0.000215537, No Iterations 1
GAMG:  Solving for p, Initial residual = 0.00129548, Final residual = 5.09503e-05, No Iterations 2
time step continuity errors : sum local = 0.0080152, global = 0.00136631, cumulative = -0.854713
ExecutionTime = 6.91 s  ClockTime = 7 s

Time = 73

smoothSolver:  Solving for Ux, Initial residual = 0.00654535, Final residual = 2.60709e-06, No Iterations 2
smoothSolver:  Solving for Uy, Initial residual = 0.00614056, Final residual = 2.47018e-06, No Iterations 2
smoothSolver:  Solving for Uz, Initial residual = 0.00593035, Final residual = 2.23148e-06, No Iterations 2
GAMG:  Solving for p, Initial residual = 0.0542627, Final residual = 0.0030558, No Iterations 1
GAMG:  Solving for p, Initial residual = 0.0135869, Final residual = 0.00112594, No Iterations 1
GAMG:  Solving for p, Initial residual = 0.0051376, Final residual = 0.00018227, No Iterations 2
GAMG:  Solving for p, Initial residual = 0.00287416, Final residual = 0.000213156, No Iterations 1
GAMG:  Solving for p, Initial residual = 0.00130267, Final residual = 6.09363e-05, No Iterations 2
time step continuity errors : sum local = 0.00951061, global = 0.00100524, cumulative = -0.853708
ExecutionTime = 7.01 s  ClockTime = 7 s

Time = 74

smoothSolver:  Solving for Ux, Initial residual = 0.00647188, Final residual = 2.58098e-06, No Iterations 2
smoothSolver:  Solving for Uy, Initial residual = 0.00606083, Final residual = 2.43849e-06, No Iterations 2
smoothSolver:  Solving for Uz, Initial residual = 0.00586022, Final residual = 2.20793e-06, No Iterations 2
GAMG:  Solving for p, Initial residual = 0.0537484, Final residual = 0.00302508, No Iterations 1
GAMG:  Solving for p, Initial residual = 0.0134717, Final residual = 0.0011131, No Iterations 1
GAMG:  Solving for p, Initial residual = 0.00509556, Final residual = 0.000192158, No Iterations 2
GAMG:  Solving for p, Initial residual = 0.00294764, Final residual = 0.000217532, No Iterations 1
GAMG:  Solving for p, Initial residual = 0.0013268, Final residual = 6.45281e-05, No Iterations 2
time step continuity errors : sum local = 0.0100168, global = 0.000937916, cumulative = -0.85277
ExecutionTime = 7.1 s  ClockTime = 7 s

Time = 75

smoothSolver:  Solving for Ux, Initial residual = 0.00639818, Final residual = 2.55282e-06, No Iterations 2
smoothSolver:  Solving for Uy, Initial residual = 0.00598551, Final residual = 2.41367e-06, No Iterations 2
smoothSolver:  Solving for Uz, Initial residual = 0.00579316, Final residual = 2.18627e-06, No Iterations 2
GAMG:  Solving for p, Initial residual = 0.0534588, Final residual = 0.00301819, No Iterations 1
GAMG:  Solving for p, Initial residual = 0.0134001, Final residual = 0.0011185, No Iterations 1
GAMG:  Solving for p, Initial residual = 0.0050819, Final residual = 0.000189294, No Iterations 2
GAMG:  Solving for p, Initial residual = 0.00292073, Final residual = 0.000219702, No Iterations 1
GAMG:  Solving for p, Initial residual = 0.00132828, Final residual = 6.53954e-05, No Iterations 2
time step continuity errors : sum local = 0.0101357, global = 0.000925281, cumulative = -0.851845
ExecutionTime = 7.2 s  ClockTime = 7 s

Time = 76

smoothSolver:  Solving for Ux, Initial residual = 0.0063246, Final residual = 2.5206e-06, No Iterations 2
smoothSolver:  Solving for Uy, Initial residual = 0.00591338, Final residual = 2.37238e-06, No Iterations 2
smoothSolver:  Solving for Uz, Initial residual = 0.00572612, Final residual = 2.16074e-06, No Iterations 2
GAMG:  Solving for p, Initial residual = 0.0530859, Final residual = 0.00300692, No Iterations 1
GAMG:  Solving for p, Initial residual = 0.0132991, Final residual = 0.00111948, No Iterations 1
GAMG:  Solving for p, Initial residual = 0.00504966, Final residual = 0.000177217, No Iterations 2
GAMG:  Solving for p, Initial residual = 0.00280251, Final residual = 0.000218147, No Iterations 1
GAMG:  Solving for p, Initial residual = 0.00130438, Final residual = 6.27007e-05, No Iterations 2
time step continuity errors : sum local = 0.00974113, global = 0.000980844, cumulative = -0.850864
ExecutionTime = 7.29 s  ClockTime = 7 s

Time = 77

smoothSolver:  Solving for Ux, Initial residual = 0.00625511, Final residual = 2.48961e-06, No Iterations 2
smoothSolver:  Solving for Uy, Initial residual = 0.00584579, Final residual = 2.34592e-06, No Iterations 2
smoothSolver:  Solving for Uz, Initial residual = 0.00566483, Final residual = 2.12945e-06, No Iterations 2
GAMG:  Solving for p, Initial residual = 0.0527328, Final residual = 0.00299038, No Iterations 1
GAMG:  Solving for p, Initial residual = 0.0131442, Final residual = 0.00111341, No Iterations 1
GAMG:  Solving for p, Initial residual = 0.00499721, Final residual = 0.000176192, No Iterations 2
GAMG:  Solving for p, Initial residual = 0.00270605, Final residual = 0.000219003, No Iterations 1
GAMG:  Solving for p, Initial residual = 0.00127865, Final residual = 5.19745e-05, No Iterations 2
time step continuity errors : sum local = 0.0081, global = 0.000949694, cumulative = -0.849914
ExecutionTime = 7.39 s  ClockTime = 7 s

Time = 78

smoothSolver:  Solving for Ux, Initial residual = 0.00618868, Final residual = 2.45444e-06, No Iterations 2
smoothSolver:  Solving for Uy, Initial residual = 0.00578106, Final residual = 2.31228e-06, No Iterations 2
smoothSolver:  Solving for Uz, Initial residual = 0.00560784, Final residual = 2.10029e-06, No Iterations 2
GAMG:  Solving for p, Initial residual = 0.0521263, Final residual = 0.00296346, No Iterations 1
GAMG:  Solving for p, Initial residual = 0.0129966, Final residual = 0.00110181, No Iterations 1
GAMG:  Solving for p, Initial residual = 0.00494682, Final residual = 0.00017498, No Iterations 2
GAMG:  Solving for p, Initial residual = 0.00268275, Final residual = 0.000217642, No Iterations 1
GAMG:  Solving for p, Initial residual = 0.00127003, Final residual = 5.23276e-05, No Iterations 2
time step continuity errors : sum local = 0.00818288, global = -0.00131602, cumulative = -0.85123
ExecutionTime = 7.48 s  ClockTime = 7 s

Time = 79

smoothSolver:  Solving for Ux, Initial residual = 0.00612087, Final residual = 2.43189e-06, No Iterations 2
smoothSolver:  Solving for Uy, Initial residual = 0.00571331, Final residual = 2.28046e-06, No Iterations 2
smoothSolver:  Solving for Uz, Initial residual = 0.00555293, Final residual = 2.07316e-06, No Iterations 2
GAMG:  Solving for p, Initial residual = 0.0514003, Final residual = 0.00292686, No Iterations 1
GAMG:  Solving for p, Initial residual = 0.0128374, Final residual = 0.00107998, No Iterations 1
GAMG:  Solving for p, Initial residual = 0.00487413, Final residual = 0.000173316, No Iterations 2
GAMG:  Solving for p, Initial residual = 0.00268525, Final residual = 0.000211542, No Iterations 1
GAMG:  Solving for p, Initial residual = 0.00125814, Final residual = 5.72226e-05, No Iterations 2
time step continuity errors : sum local = 0.00898026, global = -0.00155497, cumulative = -0.852785
ExecutionTime = 7.56 s  ClockTime = 7 s

Time = 80

smoothSolver:  Solving for Ux, Initial residual = 0.00605613, Final residual = 2.41541e-06, No Iterations 2
smoothSolver:  Solving for Uy, Initial residual = 0.00564698, Final residual = 2.25973e-06, No Iterations 2
smoothSolver:  Solving for Uz, Initial residual = 0.00550041, Final residual = 2.06162e-06, No Iterations 2
GAMG:  Solving for p, Initial residual = 0.0506622, Final residual = 0.002899, No Iterations 1
GAMG:  Solving for p, Initial residual = 0.0126729, Final residual = 0.00106605, No Iterations 1
GAMG:  Solving for p, Initial residual = 0.00480568, Final residual = 0.000177915, No Iterations 2
GAMG:  Solving for p, Initial residual = 0.00270618, Final residual = 0.000206833, No Iterations 1
GAMG:  Solving for p, Initial residual = 0.00124695, Final residual = 6.00798e-05, No Iterations 2
time step continuity errors : sum local = 0.00947774, global = -0.00118457, cumulative = -0.85397
ExecutionTime = 7.66 s  ClockTime = 7 s

Time = 81

smoothSolver:  Solving for Ux, Initial residual = 0.00598971, Final residual = 2.38918e-06, No Iterations 2
smoothSolver:  Solving for Uy, Initial residual = 0.00558129, Final residual = 2.22585e-06, No Iterations 2
smoothSolver:  Solving for Uz, Initial residual = 0.0054447, Final residual = 2.03725e-06, No Iterations 2
GAMG:  Solving for p, Initial residual = 0.0498868, Final residual = 0.00286272, No Iterations 1
GAMG:  Solving for p, Initial residual = 0.0125013, Final residual = 0.0010532, No Iterations 1
GAMG:  Solving for p, Initial residual = 0.00473164, Final residual = 0.000180431, No Iterations 2
GAMG:  Solving for p, Initial residual = 0.0026968, Final residual = 0.000202258, No Iterations 1
GAMG:  Solving for p, Initial residual = 0.0012256, Final residual = 6.00282e-05, No Iterations 2
time step continuity errors : sum local = 0.00951737, global = -0.00103192, cumulative = -0.855002
ExecutionTime = 7.74 s  ClockTime = 8 s

Time = 82

smoothSolver:  Solving for Ux, Initial residual = 0.00592673, Final residual = 2.36812e-06, No Iterations 2
smoothSolver:  Solving for Uy, Initial residual = 0.00551712, Final residual = 2.1937e-06, No Iterations 2
smoothSolver:  Solving for Uz, Initial residual = 0.0053923, Final residual = 2.01866e-06, No Iterations 2
GAMG:  Solving for p, Initial residual = 0.0492128, Final residual = 0.00282343, No Iterations 1
GAMG:  Solving for p, Initial residual = 0.0123214, Final residual = 0.00103994, No Iterations 1
GAMG:  Solving for p, Initial residual = 0.0046453, Final residual = 0.000176955, No Iterations 2
GAMG:  Solving for p, Initial residual = 0.00263219, Final residual = 0.000197037, No Iterations 1
GAMG:  Solving for p, Initial residual = 0.00119075, Final residual = 5.873e-05, No Iterations 2
time step continuity errors : sum local = 0.00934718, global = -0.000969884, cumulative = -0.855972
ExecutionTime = 7.84 s  ClockTime = 8 s

Time = 83

[...]
GAMG:  Solving for p, Initial residual = 0.00688277, Final residual = 0.00063798, No Iterations 1
GAMG:  Solving for p, Initial residual = 0.00312475, Final residual = 0.000159596, No Iterations 3
GAMG:  Solving for p, Initial residual = 0.00437081, Final residual = 0.000323623, No Iterations 1
time step continuity errors : sum local = 5.22908e+07, global = -6.87502e+06, cumulative = -2.90642e+08
ExecutionTime = 182.97 s  ClockTime = 183 s

Time = 1981

smoothSolver:  Solving for Ux, Initial residual = 0.0113253, Final residual = 4.94302e-06, No Iterations 2
smoothSolver:  Solving for Uy, Initial residual = 0.011707, Final residual = 4.93592e-06, No Iterations 2
smoothSolver:  Solving for Uz, Initial residual = 0.0119235, Final residual = 4.12264e-06, No Iterations 2
GAMG:  Solving for p, Initial residual = 0.0422589, Final residual = 0.00320741, No Iterations 1
GAMG:  Solving for p, Initial residual = 0.0116212, Final residual = 0.000670625, No Iterations 2
GAMG:  Solving for p, Initial residual = 0.00687434, Final residual = 0.000639098, No Iterations 1
GAMG:  Solving for p, Initial residual = 0.00312312, Final residual = 0.000158719, No Iterations 3
GAMG:  Solving for p, Initial residual = 0.00436808, Final residual = 0.00032271, No Iterations 1
time step continuity errors : sum local = 5.33537e+07, global = -7.00098e+06, cumulative = -2.97643e+08
ExecutionTime = 183.06 s  ClockTime = 183 s

Time = 1982

smoothSolver:  Solving for Ux, Initial residual = 0.0112994, Final residual = 4.95825e-06, No Iterations 2
smoothSolver:  Solving for Uy, Initial residual = 0.0116565, Final residual = 4.96931e-06, No Iterations 2
smoothSolver:  Solving for Uz, Initial residual = 0.0119177, Final residual = 4.15993e-06, No Iterations 2
GAMG:  Solving for p, Initial residual = 0.0422465, Final residual = 0.00320521, No Iterations 1
GAMG:  Solving for p, Initial residual = 0.0115712, Final residual = 0.000669385, No Iterations 2
GAMG:  Solving for p, Initial residual = 0.0068701, Final residual = 0.000636761, No Iterations 1
GAMG:  Solving for p, Initial residual = 0.00312192, Final residual = 0.000156332, No Iterations 3
GAMG:  Solving for p, Initial residual = 0.00435604, Final residual = 0.00032124, No Iterations 1
time step continuity errors : sum local = 5.44886e+07, global = -7.14059e+06, cumulative = -3.04784e+08
ExecutionTime = 183.15 s  ClockTime = 183 s

Time = 1983

smoothSolver:  Solving for Ux, Initial residual = 0.0113078, Final residual = 4.92764e-06, No Iterations 2
smoothSolver:  Solving for Uy, Initial residual = 0.0116859, Final residual = 4.92175e-06, No Iterations 2
smoothSolver:  Solving for Uz, Initial residual = 0.0119255, Final residual = 4.13278e-06, No Iterations 2
GAMG:  Solving for p, Initial residual = 0.0425066, Final residual = 0.00323141, No Iterations 1
GAMG:  Solving for p, Initial residual = 0.0116471, Final residual = 0.000671712, No Iterations 2
GAMG:  Solving for p, Initial residual = 0.00689121, Final residual = 0.00064117, No Iterations 1
GAMG:  Solving for p, Initial residual = 0.0031354, Final residual = 0.000155256, No Iterations 3
GAMG:  Solving for p, Initial residual = 0.00435115, Final residual = 0.000320903, No Iterations 1
time step continuity errors : sum local = 5.57447e+07, global = -7.30249e+06, cumulative = -3.12086e+08
ExecutionTime = 183.25 s  ClockTime = 183 s

Time = 1984

smoothSolver:  Solving for Ux, Initial residual = 0.0112777, Final residual = 4.95676e-06, No Iterations 2
smoothSolver:  Solving for Uy, Initial residual = 0.0116408, Final residual = 4.98082e-06, No Iterations 2
smoothSolver:  Solving for Uz, Initial residual = 0.0119089, Final residual = 4.19842e-06, No Iterations 2
GAMG:  Solving for p, Initial residual = 0.0425325, Final residual = 0.00324604, No Iterations 1
GAMG:  Solving for p, Initial residual = 0.0117402, Final residual = 0.000672777, No Iterations 2
GAMG:  Solving for p, Initial residual = 0.00695721, Final residual = 0.000645671, No Iterations 1
GAMG:  Solving for p, Initial residual = 0.00316874, Final residual = 0.000155481, No Iterations 3
GAMG:  Solving for p, Initial residual = 0.00436328, Final residual = 0.000323143, No Iterations 1
time step continuity errors : sum local = 5.74269e+07, global = -7.46004e+06, cumulative = -3.19547e+08
ExecutionTime = 183.35 s  ClockTime = 183 s

Time = 1985

smoothSolver:  Solving for Ux, Initial residual = 0.0112864, Final residual = 4.93352e-06, No Iterations 2
smoothSolver:  Solving for Uy, Initial residual = 0.0116952, Final residual = 4.92631e-06, No Iterations 2
smoothSolver:  Solving for Uz, Initial residual = 0.0119224, Final residual = 4.13176e-06, No Iterations 2
GAMG:  Solving for p, Initial residual = 0.0426927, Final residual = 0.00325909, No Iterations 1
GAMG:  Solving for p, Initial residual = 0.0118085, Final residual = 0.000675935, No Iterations 2
GAMG:  Solving for p, Initial residual = 0.00700635, Final residual = 0.000651816, No Iterations 1
GAMG:  Solving for p, Initial residual = 0.00319695, Final residual = 0.000158491, No Iterations 3
GAMG:  Solving for p, Initial residual = 0.00438725, Final residual = 0.000325638, No Iterations 1
time step continuity errors : sum local = 5.92028e+07, global = -7.67193e+06, cumulative = -3.27218e+08
ExecutionTime = 183.43 s  ClockTime = 183 s

Time = 1986

smoothSolver:  Solving for Ux, Initial residual = 0.011273, Final residual = 4.95537e-06, No Iterations 2
smoothSolver:  Solving for Uy, Initial residual = 0.0116585, Final residual = 4.96869e-06, No Iterations 2
smoothSolver:  Solving for Uz, Initial residual = 0.0119097, Final residual = 4.17654e-06, No Iterations 2
GAMG:  Solving for p, Initial residual = 0.0426013, Final residual = 0.00325195, No Iterations 1
GAMG:  Solving for p, Initial residual = 0.0117883, Final residual = 0.000672157, No Iterations 2
GAMG:  Solving for p, Initial residual = 0.00700143, Final residual = 0.000649284, No Iterations 1
GAMG:  Solving for p, Initial residual = 0.00319536, Final residual = 0.000158976, No Iterations 3
GAMG:  Solving for p, Initial residual = 0.00438099, Final residual = 0.000325866, No Iterations 1
time step continuity errors : sum local = 6.0687e+07, global = -7.85017e+06, cumulative = -3.35069e+08
ExecutionTime = 183.54 s  ClockTime = 183 s

Time = 1987

smoothSolver:  Solving for Ux, Initial residual = 0.0112977, Final residual = 4.93588e-06, No Iterations 2
smoothSolver:  Solving for Uy, Initial residual = 0.0117016, Final residual = 4.89842e-06, No Iterations 2
smoothSolver:  Solving for Uz, Initial residual = 0.01194, Final residual = 4.10334e-06, No Iterations 2
GAMG:  Solving for p, Initial residual = 0.0426738, Final residual = 0.00325091, No Iterations 1
GAMG:  Solving for p, Initial residual = 0.0117827, Final residual = 0.000671584, No Iterations 2
GAMG:  Solving for p, Initial residual = 0.00697936, Final residual = 0.000644607, No Iterations 1
GAMG:  Solving for p, Initial residual = 0.00318101, Final residual = 0.000155741, No Iterations 3
GAMG:  Solving for p, Initial residual = 0.00437744, Final residual = 0.000323112, No Iterations 1
time step continuity errors : sum local = 6.16026e+07, global = -8.08392e+06, cumulative = -3.43153e+08
ExecutionTime = 183.62 s  ClockTime = 184 s

Time = 1988

smoothSolver:  Solving for Ux, Initial residual = 0.0112741, Final residual = 4.94801e-06, No Iterations 2
smoothSolver:  Solving for Uy, Initial residual = 0.0116531, Final residual = 4.97449e-06, No Iterations 2
smoothSolver:  Solving for Uz, Initial residual = 0.01191, Final residual = 4.19459e-06, No Iterations 2
GAMG:  Solving for p, Initial residual = 0.0425959, Final residual = 0.00323244, No Iterations 1
GAMG:  Solving for p, Initial residual = 0.0117434, Final residual = 0.000667329, No Iterations 2
GAMG:  Solving for p, Initial residual = 0.00693145, Final residual = 0.000639042, No Iterations 1
GAMG:  Solving for p, Initial residual = 0.00316139, Final residual = 0.000155131, No Iterations 3
GAMG:  Solving for p, Initial residual = 0.00435731, Final residual = 0.000321748, No Iterations 1
time step continuity errors : sum local = 6.27646e+07, global = -8.27142e+06, cumulative = -3.51424e+08
ExecutionTime = 183.72 s  ClockTime = 184 s

Time = 1989

smoothSolver:  Solving for Ux, Initial residual = 0.0112883, Final residual = 4.93378e-06, No Iterations 2
smoothSolver:  Solving for Uy, Initial residual = 0.0117003, Final residual = 4.93769e-06, No Iterations 2
smoothSolver:  Solving for Uz, Initial residual = 0.0119274, Final residual = 4.14294e-06, No Iterations 2
GAMG:  Solving for p, Initial residual = 0.0426346, Final residual = 0.00322655, No Iterations 1
GAMG:  Solving for p, Initial residual = 0.0116935, Final residual = 0.000666824, No Iterations 2
GAMG:  Solving for p, Initial residual = 0.00688927, Final residual = 0.000636529, No Iterations 1
GAMG:  Solving for p, Initial residual = 0.00313755, Final residual = 0.000155279, No Iterations 3
GAMG:  Solving for p, Initial residual = 0.00434535, Final residual = 0.000320573, No Iterations 1
time step continuity errors : sum local = 6.39651e+07, global = -8.5104e+06, cumulative = -3.59934e+08
ExecutionTime = 183.81 s  ClockTime = 184 s

Time = 1990

smoothSolver:  Solving for Ux, Initial residual = 0.0112744, Final residual = 4.96206e-06, No Iterations 2
smoothSolver:  Solving for Uy, Initial residual = 0.011659, Final residual = 4.99922e-06, No Iterations 2
smoothSolver:  Solving for Uz, Initial residual = 0.0119068, Final residual = 4.18282e-06, No Iterations 2
GAMG:  Solving for p, Initial residual = 0.0425612, Final residual = 0.00321646, No Iterations 1
GAMG:  Solving for p, Initial residual = 0.0116348, Final residual = 0.000665673, No Iterations 2
GAMG:  Solving for p, Initial residual = 0.0068441, Final residual = 0.000632248, No Iterations 1
GAMG:  Solving for p, Initial residual = 0.00311804, Final residual = 0.000154096, No Iterations 3
GAMG:  Solving for p, Initial residual = 0.00432516, Final residual = 0.000319247, No Iterations 1
time step continuity errors : sum local = 6.51235e+07, global = -8.64211e+06, cumulative = -3.68576e+08
ExecutionTime = 183.9 s  ClockTime = 184 s

Time = 1991

smoothSolver:  Solving for Ux, Initial residual = 0.0112936, Final residual = 4.92286e-06, No Iterations 2
smoothSolver:  Solving for Uy, Initial residual = 0.0116978, Final residual = 4.92802e-06, No Iterations 2
smoothSolver:  Solving for Uz, Initial residual = 0.0119268, Final residual = 4.12905e-06, No Iterations 2
GAMG:  Solving for p, Initial residual = 0.0426069, Final residual = 0.00320987, No Iterations 1
GAMG:  Solving for p, Initial residual = 0.0116148, Final residual = 0.000669349, No Iterations 2
GAMG:  Solving for p, Initial residual = 0.00685769, Final residual = 0.000635721, No Iterations 1
GAMG:  Solving for p, Initial residual = 0.00312175, Final residual = 0.000155526, No Iterations 3
GAMG:  Solving for p, Initial residual = 0.004344, Final residual = 0.000321002, No Iterations 1
time step continuity errors : sum local = 6.69593e+07, global = -8.91586e+06, cumulative = -3.77492e+08
ExecutionTime = 183.99 s  ClockTime = 184 s

Time = 1992

smoothSolver:  Solving for Ux, Initial residual = 0.011278, Final residual = 4.95452e-06, No Iterations 2
smoothSolver:  Solving for Uy, Initial residual = 0.0116394, Final residual = 4.95104e-06, No Iterations 2
smoothSolver:  Solving for Uz, Initial residual = 0.011921, Final residual = 4.15506e-06, No Iterations 2
GAMG:  Solving for p, Initial residual = 0.0423829, Final residual = 0.00318652, No Iterations 1
GAMG:  Solving for p, Initial residual = 0.0115569, Final residual = 0.000667302, No Iterations 2
GAMG:  Solving for p, Initial residual = 0.00685409, Final residual = 0.000633535, No Iterations 1
GAMG:  Solving for p, Initial residual = 0.00311821, Final residual = 0.000155283, No Iterations 3
GAMG:  Solving for p, Initial residual = 0.00435092, Final residual = 0.000321628, No Iterations 1
time step continuity errors : sum local = 6.87487e+07, global = -9.13018e+06, cumulative = -3.86623e+08
ExecutionTime = 184.09 s  ClockTime = 184 s

Time = 1993

smoothSolver:  Solving for Ux, Initial residual = 0.0112999, Final residual = 4.92917e-06, No Iterations 2
smoothSolver:  Solving for Uy, Initial residual = 0.0116933, Final residual = 4.91774e-06, No Iterations 2
smoothSolver:  Solving for Uz, Initial residual = 0.0119276, Final residual = 4.13007e-06, No Iterations 2
GAMG:  Solving for p, Initial residual = 0.0424017, Final residual = 0.00318672, No Iterations 1
GAMG:  Solving for p, Initial residual = 0.0115289, Final residual = 0.000671819, No Iterations 2
GAMG:  Solving for p, Initial residual = 0.00686264, Final residual = 0.000635598, No Iterations 1
GAMG:  Solving for p, Initial residual = 0.00312367, Final residual = 0.000155553, No Iterations 3
GAMG:  Solving for p, Initial residual = 0.00436573, Final residual = 0.000322175, No Iterations 1
time step continuity errors : sum local = 7.04776e+07, global = -9.3976e+06, cumulative = -3.9602e+08
ExecutionTime = 184.19 s  ClockTime = 184 s

Time = 1994

smoothSolver:  Solving for Ux, Initial residual = 0.0112708, Final residual = 4.95088e-06, No Iterations 2
smoothSolver:  Solving for Uy, Initial residual = 0.0116512, Final residual = 4.97837e-06, No Iterations 2
smoothSolver:  Solving for Uz, Initial residual = 0.0119055, Final residual = 4.19266e-06, No Iterations 2
GAMG:  Solving for p, Initial residual = 0.0421828, Final residual = 0.0031766, No Iterations 1
GAMG:  Solving for p, Initial residual = 0.0115035, Final residual = 0.000673395, No Iterations 2
GAMG:  Solving for p, Initial residual = 0.00688514, Final residual = 0.00063629, No Iterations 1
GAMG:  Solving for p, Initial residual = 0.00312929, Final residual = 0.000155376, No Iterations 3
GAMG:  Solving for p, Initial residual = 0.00436513, Final residual = 0.000322435, No Iterations 1
time step continuity errors : sum local = 7.21566e+07, global = -9.56468e+06, cumulative = -4.05585e+08
ExecutionTime = 184.29 s  ClockTime = 184 s

Time = 1995

smoothSolver:  Solving for Ux, Initial residual = 0.0113065, Final residual = 4.94465e-06, No Iterations 2
smoothSolver:  Solving for Uy, Initial residual = 0.0117093, Final residual = 4.93057e-06, No Iterations 2
smoothSolver:  Solving for Uz, Initial residual = 0.0119233, Final residual = 4.13768e-06, No Iterations 2
GAMG:  Solving for p, Initial residual = 0.0422284, Final residual = 0.00318837, No Iterations 1
GAMG:  Solving for p, Initial residual = 0.0114944, Final residual = 0.000675652, No Iterations 2
GAMG:  Solving for p, Initial residual = 0.00689184, Final residual = 0.000638256, No Iterations 1
GAMG:  Solving for p, Initial residual = 0.00312663, Final residual = 0.000155666, No Iterations 3
GAMG:  Solving for p, Initial residual = 0.00436072, Final residual = 0.000321686, No Iterations 1
time step continuity errors : sum local = 7.36868e+07, global = -9.76546e+06, cumulative = -4.1535e+08
ExecutionTime = 184.39 s  ClockTime = 184 s

Time = 1996

smoothSolver:  Solving for Ux, Initial residual = 0.0113055, Final residual = 5.00263e-06, No Iterations 2
smoothSolver:  Solving for Uy, Initial residual = 0.0116818, Final residual = 4.98954e-06, No Iterations 2
smoothSolver:  Solving for Uz, Initial residual = 0.0119076, Final residual = 4.17386e-06, No Iterations 2
GAMG:  Solving for p, Initial residual = 0.0423073, Final residual = 0.00319215, No Iterations 1
GAMG:  Solving for p, Initial residual = 0.0114727, Final residual = 0.000675729, No Iterations 2
GAMG:  Solving for p, Initial residual = 0.00687809, Final residual = 0.00063655, No Iterations 1
GAMG:  Solving for p, Initial residual = 0.00312295, Final residual = 0.000154392, No Iterations 3
GAMG:  Solving for p, Initial residual = 0.00435582, Final residual = 0.000321341, No Iterations 1
time step continuity errors : sum local = 7.51989e+07, global = -9.96471e+06, cumulative = -4.25315e+08
ExecutionTime = 184.49 s  ClockTime = 184 s

Time = 1997

smoothSolver:  Solving for Ux, Initial residual = 0.011336, Final residual = 4.96885e-06, No Iterations 2
smoothSolver:  Solving for Uy, Initial residual = 0.0117299, Final residual = 4.93826e-06, No Iterations 2
smoothSolver:  Solving for Uz, Initial residual = 0.0119324, Final residual = 4.10448e-06, No Iterations 2
GAMG:  Solving for p, Initial residual = 0.0423639, Final residual = 0.00319512, No Iterations 1
GAMG:  Solving for p, Initial residual = 0.0115434, Final residual = 0.000679157, No Iterations 2
GAMG:  Solving for p, Initial residual = 0.00690756, Final residual = 0.000638923, No Iterations 1
GAMG:  Solving for p, Initial residual = 0.00313398, Final residual = 0.000155445, No Iterations 3
GAMG:  Solving for p, Initial residual = 0.00437554, Final residual = 0.000322562, No Iterations 1
time step continuity errors : sum local = 7.73036e+07, global = -1.02908e+07, cumulative = -4.35606e+08
ExecutionTime = 184.57 s  ClockTime = 184 s

Time = 1998

smoothSolver:  Solving for Ux, Initial residual = 0.0113091, Final residual = 4.99196e-06, No Iterations 2
smoothSolver:  Solving for Uy, Initial residual = 0.0116678, Final residual = 4.9903e-06, No Iterations 2
smoothSolver:  Solving for Uz, Initial residual = 0.0119064, Final residual = 4.19716e-06, No Iterations 2
GAMG:  Solving for p, Initial residual = 0.0424527, Final residual = 0.00318586, No Iterations 1
GAMG:  Solving for p, Initial residual = 0.0115458, Final residual = 0.000675297, No Iterations 2
GAMG:  Solving for p, Initial residual = 0.00689607, Final residual = 0.000636928, No Iterations 1
GAMG:  Solving for p, Initial residual = 0.00313454, Final residual = 0.000155006, No Iterations 3
GAMG:  Solving for p, Initial residual = 0.00437093, Final residual = 0.000322501, No Iterations 1
time step continuity errors : sum local = 7.9053e+07, global = -1.04911e+07, cumulative = -4.46097e+08
ExecutionTime = 184.67 s  ClockTime = 185 s

Time = 1999

smoothSolver:  Solving for Ux, Initial residual = 0.011338, Final residual = 4.95526e-06, No Iterations 2
smoothSolver:  Solving for Uy, Initial residual = 0.0117176, Final residual = 4.94881e-06, No Iterations 2
smoothSolver:  Solving for Uz, Initial residual = 0.0119211, Final residual = 4.13688e-06, No Iterations 2
GAMG:  Solving for p, Initial residual = 0.0424912, Final residual = 0.00318469, No Iterations 1
GAMG:  Solving for p, Initial residual = 0.011509, Final residual = 0.000677005, No Iterations 2
GAMG:  Solving for p, Initial residual = 0.006882, Final residual = 0.000636343, No Iterations 1
GAMG:  Solving for p, Initial residual = 0.00312948, Final residual = 0.00015479, No Iterations 3
GAMG:  Solving for p, Initial residual = 0.00437182, Final residual = 0.000321983, No Iterations 1
time step continuity errors : sum local = 8.07125e+07, global = -1.07355e+07, cumulative = -4.56832e+08
ExecutionTime = 184.76 s  ClockTime = 185 s

Time = 2000

smoothSolver:  Solving for Ux, Initial residual = 0.0113055, Final residual = 5.00498e-06, No Iterations 2
smoothSolver:  Solving for Uy, Initial residual = 0.011667, Final residual = 5.00669e-06, No Iterations 2
smoothSolver:  Solving for Uz, Initial residual = 0.011903, Final residual = 4.1995e-06, No Iterations 2
GAMG:  Solving for p, Initial residual = 0.0424095, Final residual = 0.00317903, No Iterations 1
GAMG:  Solving for p, Initial residual = 0.0114779, Final residual = 0.000675097, No Iterations 2
GAMG:  Solving for p, Initial residual = 0.00687712, Final residual = 0.000637635, No Iterations 1
GAMG:  Solving for p, Initial residual = 0.00313066, Final residual = 0.000154555, No Iterations 3
GAMG:  Solving for p, Initial residual = 0.00437355, Final residual = 0.000323295, No Iterations 1
time step continuity errors : sum local = 8.30065e+07, global = -1.09599e+07, cumulative = -4.67792e+08
ExecutionTime = 185.02 s  ClockTime = 185 s

End

