/*---------------------------------------------------------------------------*\
| =========                 |                                                 |
| \\      /  F ield         | OpenFOAM: The Open Source CFD Toolbox           |
|  \\    /   O peration     | Version:  2506                                  |
|   \\  /    A nd           | Website:  www.openfoam.com                      |
|    \\/     M anipulation  |                                                 |
\*---------------------------------------------------------------------------*/
Build  : _615aae61-20250627 OPENFOAM=2506 version=2506
Arch   : "LSB;label=32;scalar=64"
Exec   : simpleFoam -noFunctionObjects -case /home/ubuntu/fan_CFD_dataset/cases/fan_3
Date   : Nov 07 2025
Time   : 15:10:02
Host   : ip-172-31-37-87
PID    : 177434
I/O    : uncollated
Case   : /home/ubuntu/fan_CFD_dataset/cases/fan_3
nProcs : 1
trapFpe: Floating point exception trapping enabled (FOAM_SIGFPE).
fileModificationChecking : Monitoring run-time modified files using timeStampMaster (fileModificationSkew 5, maxFileModificationPolls 20)
allowSystemOperations : Allowing user-supplied system call operations

// * * * * * * * * * * * * * * * * * * * * * * * * * * * * * * * * * * * * * //
Create time

Create mesh for time = 0


SIMPLE: convergence criteria
    field U	 tolerance 1e-05
    field p	 tolerance 0.0001

Reading field p

Reading field U

Reading/calculating face flux field phi

Selecting incompressible transport model Newtonian
Selecting turbulence model type laminar
Selecting laminar stress model Stokes
No MRF models present

No finite volume options present

Starting time loop

Time = 1

smoothSolver:  Solving for Ux, Initial residual = 1, Final residual = 0.000330972, No Iterations 2
smoothSolver:  Solving for Uy, Initial residual = 1, Final residual = 0.000340662, No Iterations 2
smoothSolver:  Solving for Uz, Initial residual = 1, Final residual = 0.000683928, No Iterations 2
GAMG:  Solving for p, Initial residual = 1, Final residual = 0.057149, No Iterations 3
GAMG:  Solving for p, Initial residual = 0.189033, Final residual = 0.0124455, No Iterations 1
GAMG:  Solving for p, Initial residual = 0.060893, Final residual = 0.00581486, No Iterations 1
GAMG:  Solving for p, Initial residual = 0.0367127, Final residual = 0.00362799, No Iterations 1
GAMG:  Solving for p, Initial residual = 0.0236432, Final residual = 0.00108001, No Iterations 2
time step continuity errors : sum local = 5.5874, global = -0.894291, cumulative = -0.894291
ExecutionTime = 0.24 s  ClockTime = 1 s

Time = 2

smoothSolver:  Solving for Ux, Initial residual = 0.114359, Final residual = 4.16517e-05, No Iterations 2
smoothSolver:  Solving for Uy, Initial residual = 0.103633, Final residual = 3.65923e-05, No Iterations 2
smoothSolver:  Solving for Uz, Initial residual = 0.18669, Final residual = 5.24305e-05, No Iterations 2
GAMG:  Solving for p, Initial residual = 0.757579, Final residual = 0.0511241, No Iterations 3
GAMG:  Solving for p, Initial residual = 0.213718, Final residual = 0.0140055, No Iterations 1
GAMG:  Solving for p, Initial residual = 0.0740581, Final residual = 0.0066117, No Iterations 1
GAMG:  Solving for p, Initial residual = 0.0454909, Final residual = 0.00413587, No Iterations 1
GAMG:  Solving for p, Initial residual = 0.0301078, Final residual = 0.00286414, No Iterations 1
time step continuity errors : sum local = 13.261, global = -3.87704, cumulative = -4.77133
ExecutionTime = 0.31 s  ClockTime = 1 s

Time = 3

smoothSolver:  Solving for Ux, Initial residual = 0.170991, Final residual = 8.38288e-05, No Iterations 2
smoothSolver:  Solving for Uy, Initial residual = 0.172904, Final residual = 8.20449e-05, No Iterations 2
smoothSolver:  Solving for Uz, Initial residual = 0.300098, Final residual = 0.000107099, No Iterations 2
GAMG:  Solving for p, Initial residual = 0.185665, Final residual = 0.0164003, No Iterations 2
GAMG:  Solving for p, Initial residual = 0.14125, Final residual = 0.00946783, No Iterations 1
GAMG:  Solving for p, Initial residual = 0.055338, Final residual = 0.00537086, No Iterations 1
GAMG:  Solving for p, Initial residual = 0.037379, Final residual = 0.00346144, No Iterations 1
GAMG:  Solving for p, Initial residual = 0.0242865, Final residual = 0.00240244, No Iterations 1
time step continuity errors : sum local = 7.84082, global = -2.32966, cumulative = -7.10099
ExecutionTime = 0.39 s  ClockTime = 1 s

Time = 4

smoothSolver:  Solving for Ux, Initial residual = 0.167818, Final residual = 8.39756e-05, No Iterations 2
smoothSolver:  Solving for Uy, Initial residual = 0.167273, Final residual = 7.76784e-05, No Iterations 2
smoothSolver:  Solving for Uz, Initial residual = 0.361484, Final residual = 0.000145241, No Iterations 2
GAMG:  Solving for p, Initial residual = 0.0856309, Final residual = 0.00837381, No Iterations 1
GAMG:  Solving for p, Initial residual = 0.0448849, Final residual = 0.00210865, No Iterations 2
GAMG:  Solving for p, Initial residual = 0.0383387, Final residual = 0.00254646, No Iterations 1
GAMG:  Solving for p, Initial residual = 0.0193237, Final residual = 0.0018069, No Iterations 1
GAMG:  Solving for p, Initial residual = 0.0143792, Final residual = 0.00128265, No Iterations 1
time step continuity errors : sum local = 2.91223, global = -0.979025, cumulative = -8.08001
ExecutionTime = 0.45 s  ClockTime = 1 s

Time = 5

smoothSolver:  Solving for Ux, Initial residual = 0.127282, Final residual = 6.38515e-05, No Iterations 2
smoothSolver:  Solving for Uy, Initial residual = 0.127663, Final residual = 5.93375e-05, No Iterations 2
smoothSolver:  Solving for Uz, Initial residual = 0.364187, Final residual = 0.000150818, No Iterations 2
GAMG:  Solving for p, Initial residual = 0.0799894, Final residual = 0.00457171, No Iterations 2
GAMG:  Solving for p, Initial residual = 0.0806806, Final residual = 0.00570602, No Iterations 1
GAMG:  Solving for p, Initial residual = 0.0407251, Final residual = 0.00391538, No Iterations 1
GAMG:  Solving for p, Initial residual = 0.0314583, Final residual = 0.00299536, No Iterations 1
GAMG:  Solving for p, Initial residual = 0.0237096, Final residual = 0.00231951, No Iterations 1
time step continuity errors : sum local = 2.42889, global = 0.765931, cumulative = -7.31408
ExecutionTime = 0.52 s  ClockTime = 1 s

Time = 6

smoothSolver:  Solving for Ux, Initial residual = 0.0899055, Final residual = 4.47395e-05, No Iterations 2
smoothSolver:  Solving for Uy, Initial residual = 0.0893636, Final residual = 4.2005e-05, No Iterations 2
smoothSolver:  Solving for Uz, Initial residual = 0.327195, Final residual = 0.000135299, No Iterations 2
GAMG:  Solving for p, Initial residual = 0.106565, Final residual = 0.00960192, No Iterations 2
GAMG:  Solving for p, Initial residual = 0.279503, Final residual = 0.0196114, No Iterations 1
GAMG:  Solving for p, Initial residual = 0.163375, Final residual = 0.0159771, No Iterations 1
GAMG:  Solving for p, Initial residual = 0.118922, Final residual = 0.0112779, No Iterations 1
GAMG:  Solving for p, Initial residual = 0.0801397, Final residual = 0.00790114, No Iterations 1
time step continuity errors : sum local = 5.62792, global = 1.77111, cumulative = -5.54297
ExecutionTime = 0.6 s  ClockTime = 1 s

Time = 7

smoothSolver:  Solving for Ux, Initial residual = 0.0662625, Final residual = 3.61298e-05, No Iterations 2
smoothSolver:  Solving for Uy, Initial residual = 0.0630324, Final residual = 3.41129e-05, No Iterations 2
smoothSolver:  Solving for Uz, Initial residual = 0.237343, Final residual = 0.000112336, No Iterations 2
GAMG:  Solving for p, Initial residual = 0.151265, Final residual = 0.0145877, No Iterations 2
GAMG:  Solving for p, Initial residual = 0.316913, Final residual = 0.0216886, No Iterations 1
GAMG:  Solving for p, Initial residual = 0.158679, Final residual = 0.0152751, No Iterations 1
GAMG:  Solving for p, Initial residual = 0.0995908, Final residual = 0.00925448, No Iterations 1
GAMG:  Solving for p, Initial residual = 0.0606556, Final residual = 0.00594845, No Iterations 1
time step continuity errors : sum local = 7.22418, global = 2.2287, cumulative = -3.31427
ExecutionTime = 0.67 s  ClockTime = 1 s

Time = 8

smoothSolver:  Solving for Ux, Initial residual = 0.0585089, Final residual = 3.26082e-05, No Iterations 2
smoothSolver:  Solving for Uy, Initial residual = 0.0549052, Final residual = 3.11732e-05, No Iterations 2
smoothSolver:  Solving for Uz, Initial residual = 0.128262, Final residual = 7.05127e-05, No Iterations 2
GAMG:  Solving for p, Initial residual = 0.238363, Final residual = 0.0214142, No Iterations 2
GAMG:  Solving for p, Initial residual = 0.291883, Final residual = 0.0197086, No Iterations 1
GAMG:  Solving for p, Initial residual = 0.124685, Final residual = 0.012014, No Iterations 1
GAMG:  Solving for p, Initial residual = 0.0777573, Final residual = 0.00712147, No Iterations 1
GAMG:  Solving for p, Initial residual = 0.0477466, Final residual = 0.00466639, No Iterations 1
time step continuity errors : sum local = 7.16856, global = 2.23583, cumulative = -1.07844
ExecutionTime = 0.73 s  ClockTime = 1 s

Time = 9

smoothSolver:  Solving for Ux, Initial residual = 0.0664236, Final residual = 3.85093e-05, No Iterations 2
smoothSolver:  Solving for Uy, Initial residual = 0.0649894, Final residual = 3.69695e-05, No Iterations 2
smoothSolver:  Solving for Uz, Initial residual = 0.0824577, Final residual = 4.94171e-05, No Iterations 2
GAMG:  Solving for p, Initial residual = 0.420464, Final residual = 0.030069, No Iterations 2
GAMG:  Solving for p, Initial residual = 0.242883, Final residual = 0.0162549, No Iterations 1
GAMG:  Solving for p, Initial residual = 0.0962401, Final residual = 0.0093249, No Iterations 1
GAMG:  Solving for p, Initial residual = 0.0624767, Final residual = 0.00566672, No Iterations 1
GAMG:  Solving for p, Initial residual = 0.0390624, Final residual = 0.00379707, No Iterations 1
time step continuity errors : sum local = 5.94057, global = 1.82367, cumulative = 0.745231
ExecutionTime = 0.81 s  ClockTime = 1 s

Time = 10

smoothSolver:  Solving for Ux, Initial residual = 0.078738, Final residual = 4.56867e-05, No Iterations 2
smoothSolver:  Solving for Uy, Initial residual = 0.0792947, Final residual = 4.53807e-05, No Iterations 2
smoothSolver:  Solving for Uz, Initial residual = 0.120936, Final residual = 5.88766e-05, No Iterations 2
GAMG:  Solving for p, Initial residual = 0.294498, Final residual = 0.0153797, No Iterations 2
GAMG:  Solving for p, Initial residual = 0.172777, Final residual = 0.0117271, No Iterations 1
GAMG:  Solving for p, Initial residual = 0.0732944, Final residual = 0.00721341, No Iterations 1
GAMG:  Solving for p, Initial residual = 0.0499483, Final residual = 0.00451609, No Iterations 1
GAMG:  Solving for p, Initial residual = 0.031984, Final residual = 0.00310705, No Iterations 1
time step continuity errors : sum local = 4.08212, global = 1.16536, cumulative = 1.91059
ExecutionTime = 0.88 s  ClockTime = 1 s

Time = 11

smoothSolver:  Solving for Ux, Initial residual = 0.0864768, Final residual = 5.00838e-05, No Iterations 2
smoothSolver:  Solving for Uy, Initial residual = 0.0884147, Final residual = 5.10827e-05, No Iterations 2
smoothSolver:  Solving for Uz, Initial residual = 0.173194, Final residual = 7.33627e-05, No Iterations 2
GAMG:  Solving for p, Initial residual = 0.219506, Final residual = 0.0202562, No Iterations 1
GAMG:  Solving for p, Initial residual = 0.0973927, Final residual = 0.00380248, No Iterations 2
GAMG:  Solving for p, Initial residual = 0.0640766, Final residual = 0.00455769, No Iterations 1
GAMG:  Solving for p, Initial residual = 0.0332064, Final residual = 0.00316896, No Iterations 1
GAMG:  Solving for p, Initial residual = 0.0231413, Final residual = 0.00218699, No Iterations 1
time step continuity errors : sum local = 2.00745, global = 0.597443, cumulative = 2.50803
ExecutionTime = 0.95 s  ClockTime = 1 s

Time = 12

smoothSolver:  Solving for Ux, Initial residual = 0.0875324, Final residual = 5.18519e-05, No Iterations 2
smoothSolver:  Solving for Uy, Initial residual = 0.0890181, Final residual = 5.1765e-05, No Iterations 2
smoothSolver:  Solving for Uz, Initial residual = 0.199657, Final residual = 8.3968e-05, No Iterations 2
GAMG:  Solving for p, Initial residual = 0.188566, Final residual = 0.0170131, No Iterations 1
GAMG:  Solving for p, Initial residual = 0.101636, Final residual = 0.00948662, No Iterations 1
GAMG:  Solving for p, Initial residual = 0.059601, Final residual = 0.00246572, No Iterations 2
GAMG:  Solving for p, Initial residual = 0.056619, Final residual = 0.00350979, No Iterations 1
GAMG:  Solving for p, Initial residual = 0.0284032, Final residual = 0.0024634, No Iterations 1
time step continuity errors : sum local = 1.2602, global = -0.351536, cumulative = 2.15649
ExecutionTime = 1.02 s  ClockTime = 1 s

Time = 13

smoothSolver:  Solving for Ux, Initial residual = 0.0841283, Final residual = 5.08391e-05, No Iterations 2
smoothSolver:  Solving for Uy, Initial residual = 0.0829819, Final residual = 4.85083e-05, No Iterations 2
smoothSolver:  Solving for Uz, Initial residual = 0.187357, Final residual = 8.0705e-05, No Iterations 2
GAMG:  Solving for p, Initial residual = 0.181778, Final residual = 0.0102491, No Iterations 2
GAMG:  Solving for p, Initial residual = 0.260081, Final residual = 0.0177589, No Iterations 1
GAMG:  Solving for p, Initial residual = 0.124371, Final residual = 0.0119004, No Iterations 1
GAMG:  Solving for p, Initial residual = 0.0824885, Final residual = 0.00779293, No Iterations 1
GAMG:  Solving for p, Initial residual = 0.0539281, Final residual = 0.00533166, No Iterations 1
time step continuity errors : sum local = 2.41792, global = -0.789242, cumulative = 1.36725
ExecutionTime = 1.09 s  ClockTime = 1 s

Time = 14

smoothSolver:  Solving for Ux, Initial residual = 0.078685, Final residual = 4.69315e-05, No Iterations 2
smoothSolver:  Solving for Uy, Initial residual = 0.0751245, Final residual = 4.38864e-05, No Iterations 2
smoothSolver:  Solving for Uz, Initial residual = 0.137986, Final residual = 6.34933e-05, No Iterations 2
GAMG:  Solving for p, Initial residual = 0.2011, Final residual = 0.0146236, No Iterations 2
GAMG:  Solving for p, Initial residual = 0.265015, Final residual = 0.0183815, No Iterations 1
GAMG:  Solving for p, Initial residual = 0.121077, Final residual = 0.0120313, No Iterations 1
GAMG:  Solving for p, Initial residual = 0.0786026, Final residual = 0.00750855, No Iterations 1
GAMG:  Solving for p, Initial residual = 0.0495888, Final residual = 0.00219932, No Iterations 2
time step continuity errors : sum local = 1.38999, global = -0.177494, cumulative = 1.18976
ExecutionTime = 1.16 s  ClockTime = 2 s

Time = 15

smoothSolver:  Solving for Ux, Initial residual = 0.074413, Final residual = 4.43215e-05, No Iterations 2
smoothSolver:  Solving for Uy, Initial residual = 0.0701061, Final residual = 4.1483e-05, No Iterations 2
smoothSolver:  Solving for Uz, Initial residual = 0.0824252, Final residual = 4.40109e-05, No Iterations 2
GAMG:  Solving for p, Initial residual = 0.272052, Final residual = 0.0204511, No Iterations 2
GAMG:  Solving for p, Initial residual = 0.242716, Final residual = 0.0168179, No Iterations 1
GAMG:  Solving for p, Initial residual = 0.101813, Final residual = 0.00441865, No Iterations 2
GAMG:  Solving for p, Initial residual = 0.0767564, Final residual = 0.00525817, No Iterations 1
GAMG:  Solving for p, Initial residual = 0.0365339, Final residual = 0.0015197, No Iterations 2
time step continuity errors : sum local = 1.16261, global = -0.199071, cumulative = 0.990687
ExecutionTime = 1.24 s  ClockTime = 2 s

Time = 16

smoothSolver:  Solving for Ux, Initial residual = 0.0711227, Final residual = 4.23708e-05, No Iterations 2
smoothSolver:  Solving for Uy, Initial residual = 0.0675818, Final residual = 4.02906e-05, No Iterations 2
smoothSolver:  Solving for Uz, Initial residual = 0.0673264, Final residual = 3.62796e-05, No Iterations 2
GAMG:  Solving for p, Initial residual = 0.344717, Final residual = 0.0224728, No Iterations 2
GAMG:  Solving for p, Initial residual = 0.205961, Final residual = 0.0143274, No Iterations 1
GAMG:  Solving for p, Initial residual = 0.0828948, Final residual = 0.00358114, No Iterations 2
GAMG:  Solving for p, Initial residual = 0.0655752, Final residual = 0.00452228, No Iterations 1
GAMG:  Solving for p, Initial residual = 0.0320352, Final residual = 0.00131803, No Iterations 2
time step continuity errors : sum local = 0.970167, global = -0.161449, cumulative = 0.829237
ExecutionTime = 1.32 s  ClockTime = 2 s

Time = 17

smoothSolver:  Solving for Ux, Initial residual = 0.0670497, Final residual = 4.05718e-05, No Iterations 2
smoothSolver:  Solving for Uy, Initial residual = 0.0643234, Final residual = 3.86605e-05, No Iterations 2
smoothSolver:  Solving for Uz, Initial residual = 0.0905851, Final residual = 4.11033e-05, No Iterations 2
GAMG:  Solving for p, Initial residual = 0.252418, Final residual = 0.0133902, No Iterations 2
GAMG:  Solving for p, Initial residual = 0.155107, Final residual = 0.0111761, No Iterations 1
GAMG:  Solving for p, Initial residual = 0.0667055, Final residual = 0.0028351, No Iterations 2
GAMG:  Solving for p, Initial residual = 0.0548256, Final residual = 0.00381388, No Iterations 1
GAMG:  Solving for p, Initial residual = 0.0279312, Final residual = 0.00279156, No Iterations 1
time step continuity errors : sum local = 1.66421, global = -0.455537, cumulative = 0.3737
ExecutionTime = 1.4 s  ClockTime = 2 s

Time = 18

smoothSolver:  Solving for Ux, Initial residual = 0.0611895, Final residual = 3.76494e-05, No Iterations 2
smoothSolver:  Solving for Uy, Initial residual = 0.0585062, Final residual = 3.5804e-05, No Iterations 2
smoothSolver:  Solving for Uz, Initial residual = 0.109802, Final residual = 4.58444e-05, No Iterations 2
GAMG:  Solving for p, Initial residual = 0.20353, Final residual = 0.00784417, No Iterations 2
GAMG:  Solving for p, Initial residual = 0.117449, Final residual = 0.00853547, No Iterations 1
GAMG:  Solving for p, Initial residual = 0.0523768, Final residual = 0.00518075, No Iterations 1
GAMG:  Solving for p, Initial residual = 0.0337885, Final residual = 0.00136757, No Iterations 2
GAMG:  Solving for p, Initial residual = 0.0267475, Final residual = 0.00197038, No Iterations 1
time step continuity errors : sum local = 0.815029, global = -0.239513, cumulative = 0.134187
ExecutionTime = 1.47 s  ClockTime = 2 s

Time = 19

smoothSolver:  Solving for Ux, Initial residual = 0.0552473, Final residual = 3.42485e-05, No Iterations 2
smoothSolver:  Solving for Uy, Initial residual = 0.0518555, Final residual = 3.22444e-05, No Iterations 2
smoothSolver:  Solving for Uz, Initial residual = 0.110711, Final residual = 4.57373e-05, No Iterations 2
GAMG:  Solving for p, Initial residual = 0.182977, Final residual = 0.00745789, No Iterations 2
GAMG:  Solving for p, Initial residual = 0.155774, Final residual = 0.0102643, No Iterations 1
GAMG:  Solving for p, Initial residual = 0.0687567, Final residual = 0.0059274, No Iterations 1
GAMG:  Solving for p, Initial residual = 0.0441473, Final residual = 0.00394341, No Iterations 1
GAMG:  Solving for p, Initial residual = 0.0294029, Final residual = 0.00269372, No Iterations 1
time step continuity errors : sum local = 0.618036, global = 0.167097, cumulative = 0.301283
ExecutionTime = 1.54 s  ClockTime = 2 s

Time = 20

smoothSolver:  Solving for Ux, Initial residual = 0.0511294, Final residual = 3.16231e-05, No Iterations 2
smoothSolver:  Solving for Uy, Initial residual = 0.0468079, Final residual = 2.92336e-05, No Iterations 2
smoothSolver:  Solving for Uz, Initial residual = 0.0953093, Final residual = 4.09106e-05, No Iterations 2
GAMG:  Solving for p, Initial residual = 0.180265, Final residual = 0.0102319, No Iterations 2
GAMG:  Solving for p, Initial residual = 0.24141, Final residual = 0.0161147, No Iterations 1
GAMG:  Solving for p, Initial residual = 0.10955, Final residual = 0.0102867, No Iterations 1
GAMG:  Solving for p, Initial residual = 0.0719646, Final residual = 0.00665537, No Iterations 1
GAMG:  Solving for p, Initial residual = 0.0463482, Final residual = 0.00452288, No Iterations 1
time step continuity errors : sum local = 1.02034, global = 0.332907, cumulative = 0.634191
ExecutionTime = 1.61 s  ClockTime = 2 s

Time = 21

smoothSolver:  Solving for Ux, Initial residual = 0.0495242, Final residual = 3.03583e-05, No Iterations 2
smoothSolver:  Solving for Uy, Initial residual = 0.0455361, Final residual = 2.79614e-05, No Iterations 2
smoothSolver:  Solving for Uz, Initial residual = 0.0697885, Final residual = 3.30363e-05, No Iterations 2
GAMG:  Solving for p, Initial residual = 0.198228, Final residual = 0.013325, No Iterations 2
GAMG:  Solving for p, Initial residual = 0.238332, Final residual = 0.0164598, No Iterations 1
GAMG:  Solving for p, Initial residual = 0.107782, Final residual = 0.0107591, No Iterations 1
GAMG:  Solving for p, Initial residual = 0.0727847, Final residual = 0.00688563, No Iterations 1
GAMG:  Solving for p, Initial residual = 0.0462554, Final residual = 0.00203741, No Iterations 2
time step continuity errors : sum local = 0.574213, global = 0.0721056, cumulative = 0.706296
ExecutionTime = 1.68 s  ClockTime = 2 s

Time = 22

smoothSolver:  Solving for Ux, Initial residual = 0.0499404, Final residual = 3.00293e-05, No Iterations 2
smoothSolver:  Solving for Uy, Initial residual = 0.0472401, Final residual = 2.7901e-05, No Iterations 2
smoothSolver:  Solving for Uz, Initial residual = 0.0454584, Final residual = 2.50204e-05, No Iterations 2
GAMG:  Solving for p, Initial residual = 0.258114, Final residual = 0.0168303, No Iterations 2
GAMG:  Solving for p, Initial residual = 0.219867, Final residual = 0.0155438, No Iterations 1
GAMG:  Solving for p, Initial residual = 0.0953617, Final residual = 0.00423205, No Iterations 2
GAMG:  Solving for p, Initial residual = 0.075729, Final residual = 0.00521724, No Iterations 1
GAMG:  Solving for p, Initial residual = 0.0359533, Final residual = 0.00151391, No Iterations 2
time step continuity errors : sum local = 0.487933, global = 0.0831515, cumulative = 0.789448
ExecutionTime = 1.77 s  ClockTime = 2 s

Time = 23

smoothSolver:  Solving for Ux, Initial residual = 0.0507653, Final residual = 2.99508e-05, No Iterations 2
smoothSolver:  Solving for Uy, Initial residual = 0.048928, Final residual = 2.80472e-05, No Iterations 2
smoothSolver:  Solving for Uz, Initial residual = 0.0365981, Final residual = 2.12154e-05, No Iterations 2
GAMG:  Solving for p, Initial residual = 0.327117, Final residual = 0.0181149, No Iterations 2
GAMG:  Solving for p, Initial residual = 0.19068, Final residual = 0.0138529, No Iterations 1
GAMG:  Solving for p, Initial residual = 0.0802935, Final residual = 0.0036258, No Iterations 2
GAMG:  Solving for p, Initial residual = 0.0662239, Final residual = 0.00466934, No Iterations 1
GAMG:  Solving for p, Initial residual = 0.0321842, Final residual = 0.0013615, No Iterations 2
time step continuity errors : sum local = 0.415323, global = 0.0716399, cumulative = 0.861088
ExecutionTime = 1.84 s  ClockTime = 2 s

Time = 24

smoothSolver:  Solving for Ux, Initial residual = 0.050471, Final residual = 2.95406e-05, No Iterations 2
smoothSolver:  Solving for Uy, Initial residual = 0.0487519, Final residual = 2.76014e-05, No Iterations 2
smoothSolver:  Solving for Uz, Initial residual = 0.0424258, Final residual = 2.20406e-05, No Iterations 2
GAMG:  Solving for p, Initial residual = 0.264307, Final residual = 0.0126549, No Iterations 2
GAMG:  Solving for p, Initial residual = 0.155565, Final residual = 0.0117445, No Iterations 1
GAMG:  Solving for p, Initial residual = 0.0674032, Final residual = 0.00298732, No Iterations 2
GAMG:  Solving for p, Initial residual = 0.0556991, Final residual = 0.00407789, No Iterations 1
GAMG:  Solving for p, Initial residual = 0.0281909, Final residual = 0.00120388, No Iterations 2
time step continuity errors : sum local = 0.29833, global = 0.0516542, cumulative = 0.912742
ExecutionTime = 1.92 s  ClockTime = 2 s

Time = 25

smoothSolver:  Solving for Ux, Initial residual = 0.048658, Final residual = 2.86607e-05, No Iterations 2
smoothSolver:  Solving for Uy, Initial residual = 0.0465749, Final residual = 2.65031e-05, No Iterations 2
smoothSolver:  Solving for Uz, Initial residual = 0.0491479, Final residual = 2.31579e-05, No Iterations 2
GAMG:  Solving for p, Initial residual = 0.226815, Final residual = 0.00907479, No Iterations 2
GAMG:  Solving for p, Initial residual = 0.13311, Final residual = 0.0097952, No Iterations 1
GAMG:  Solving for p, Initial residual = 0.0573804, Final residual = 0.00222683, No Iterations 2
GAMG:  Solving for p, Initial residual = 0.0423117, Final residual = 0.00315487, No Iterations 1
GAMG:  Solving for p, Initial residual = 0.022441, Final residual = 0.000900981, No Iterations 2
time step continuity errors : sum local = 0.158808, global = 0.0174811, cumulative = 0.930223
ExecutionTime = 2 s  ClockTime = 2 s

Time = 26

smoothSolver:  Solving for Ux, Initial residual = 0.0461254, Final residual = 2.73572e-05, No Iterations 2
smoothSolver:  Solving for Uy, Initial residual = 0.0432252, Final residual = 2.48864e-05, No Iterations 2
smoothSolver:  Solving for Uz, Initial residual = 0.0492891, Final residual = 2.24744e-05, No Iterations 2
GAMG:  Solving for p, Initial residual = 0.208597, Final residual = 0.00860276, No Iterations 2
GAMG:  Solving for p, Initial residual = 0.166883, Final residual = 0.0111405, No Iterations 1
GAMG:  Solving for p, Initial residual = 0.0720503, Final residual = 0.00609902, No Iterations 1
GAMG:  Solving for p, Initial residual = 0.0447104, Final residual = 0.0039274, No Iterations 1
GAMG:  Solving for p, Initial residual = 0.0290639, Final residual = 0.00261022, No Iterations 1
time step continuity errors : sum local = 0.275493, global = -0.0636154, cumulative = 0.866608
ExecutionTime = 2.06 s  ClockTime = 2 s

Time = 27

smoothSolver:  Solving for Ux, Initial residual = 0.0434412, Final residual = 2.58205e-05, No Iterations 2
smoothSolver:  Solving for Uy, Initial residual = 0.0399512, Final residual = 2.3414e-05, No Iterations 2
smoothSolver:  Solving for Uz, Initial residual = 0.0433187, Final residual = 2.03033e-05, No Iterations 2
GAMG:  Solving for p, Initial residual = 0.206598, Final residual = 0.010713, No Iterations 2
GAMG:  Solving for p, Initial residual = 0.204253, Final residual = 0.0136519, No Iterations 1
GAMG:  Solving for p, Initial residual = 0.0850114, Final residual = 0.00788577, No Iterations 1
GAMG:  Solving for p, Initial residual = 0.0540364, Final residual = 0.00495706, No Iterations 1
GAMG:  Solving for p, Initial residual = 0.0344818, Final residual = 0.00332884, No Iterations 1
time step continuity errors : sum local = 0.412321, global = -0.135451, cumulative = 0.731157
ExecutionTime = 2.14 s  ClockTime = 2 s

Time = 28

smoothSolver:  Solving for Ux, Initial residual = 0.041102, Final residual = 2.44371e-05, No Iterations 2
smoothSolver:  Solving for Uy, Initial residual = 0.037339, Final residual = 2.2218e-05, No Iterations 2
smoothSolver:  Solving for Uz, Initial residual = 0.0351217, Final residual = 1.74802e-05, No Iterations 2
GAMG:  Solving for p, Initial residual = 0.225291, Final residual = 0.0128889, No Iterations 2
GAMG:  Solving for p, Initial residual = 0.194711, Final residual = 0.0134619, No Iterations 1
GAMG:  Solving for p, Initial residual = 0.0828877, Final residual = 0.00360619, No Iterations 2
GAMG:  Solving for p, Initial residual = 0.0664223, Final residual = 0.00446949, No Iterations 1
GAMG:  Solving for p, Initial residual = 0.0315503, Final residual = 0.00131085, No Iterations 2
time step continuity errors : sum local = 0.196617, global = -0.0325824, cumulative = 0.698575
ExecutionTime = 2.22 s  ClockTime = 3 s

Time = 29

smoothSolver:  Solving for Ux, Initial residual = 0.0389878, Final residual = 2.30566e-05, No Iterations 2
smoothSolver:  Solving for Uy, Initial residual = 0.0353082, Final residual = 2.11872e-05, No Iterations 2
smoothSolver:  Solving for Uz, Initial residual = 0.0290611, Final residual = 1.52273e-05, No Iterations 2
GAMG:  Solving for p, Initial residual = 0.28081, Final residual = 0.0149723, No Iterations 2
GAMG:  Solving for p, Initial residual = 0.177594, Final residual = 0.012549, No Iterations 1
GAMG:  Solving for p, Initial residual = 0.0751494, Final residual = 0.0033664, No Iterations 2
GAMG:  Solving for p, Initial residual = 0.0624906, Final residual = 0.00429851, No Iterations 1
GAMG:  Solving for p, Initial residual = 0.029997, Final residual = 0.00126335, No Iterations 2
time step continuity errors : sum local = 0.203552, global = -0.0352639, cumulative = 0.663311
ExecutionTime = 2.29 s  ClockTime = 3 s

Time = 30

smoothSolver:  Solving for Ux, Initial residual = 0.0368143, Final residual = 2.18108e-05, No Iterations 2
smoothSolver:  Solving for Uy, Initial residual = 0.033394, Final residual = 2.00258e-05, No Iterations 2
smoothSolver:  Solving for Uz, Initial residual = 0.02779, Final residual = 1.41727e-05, No Iterations 2
GAMG:  Solving for p, Initial residual = 0.271308, Final residual = 0.012486, No Iterations 2
GAMG:  Solving for p, Initial residual = 0.154813, Final residual = 0.0111779, No Iterations 1
GAMG:  Solving for p, Initial residual = 0.065128, Final residual = 0.00295137, No Iterations 2
GAMG:  Solving for p, Initial residual = 0.0560671, Final residual = 0.00394087, No Iterations 1
GAMG:  Solving for p, Initial residual = 0.0275528, Final residual = 0.00116593, No Iterations 2
time step continuity errors : sum local = 0.178469, global = -0.0310676, cumulative = 0.632243
ExecutionTime = 2.36 s  ClockTime = 3 s

Time = 31

smoothSolver:  Solving for Ux, Initial residual = 0.0346277, Final residual = 2.04354e-05, No Iterations 2
smoothSolver:  Solving for Uy, Initial residual = 0.0312947, Final residual = 1.87619e-05, No Iterations 2
smoothSolver:  Solving for Uz, Initial residual = 0.0296943, Final residual = 1.4282e-05, No Iterations 2
GAMG:  Solving for p, Initial residual = 0.225591, Final residual = 0.00969544, No Iterations 2
GAMG:  Solving for p, Initial residual = 0.130051, Final residual = 0.00957463, No Iterations 1
GAMG:  Solving for p, Initial residual = 0.0557923, Final residual = 0.00243529, No Iterations 2
GAMG:  Solving for p, Initial residual = 0.0473887, Final residual = 0.00342532, No Iterations 1
GAMG:  Solving for p, Initial residual = 0.0241894, Final residual = 0.00102513, No Iterations 2
time step continuity errors : sum local = 0.13295, global = -0.0232176, cumulative = 0.609025
ExecutionTime = 2.45 s  ClockTime = 3 s

Time = 32

smoothSolver:  Solving for Ux, Initial residual = 0.0326924, Final residual = 1.93288e-05, No Iterations 2
smoothSolver:  Solving for Uy, Initial residual = 0.0292674, Final residual = 1.76595e-05, No Iterations 2
smoothSolver:  Solving for Uz, Initial residual = 0.0314029, Final residual = 1.44685e-05, No Iterations 2
GAMG:  Solving for p, Initial residual = 0.19878, Final residual = 0.00767686, No Iterations 2
GAMG:  Solving for p, Initial residual = 0.113355, Final residual = 0.00806695, No Iterations 1
GAMG:  Solving for p, Initial residual = 0.0480047, Final residual = 0.00478688, No Iterations 1
GAMG:  Solving for p, Initial residual = 0.0316222, Final residual = 0.00135119, No Iterations 2
GAMG:  Solving for p, Initial residual = 0.0250105, Final residual = 0.00186312, No Iterations 1
time step continuity errors : sum local = 0.18811, global = -0.0604017, cumulative = 0.548624
ExecutionTime = 2.52 s  ClockTime = 3 s

Time = 33

smoothSolver:  Solving for Ux, Initial residual = 0.0313053, Final residual = 1.82662e-05, No Iterations 2
smoothSolver:  Solving for Uy, Initial residual = 0.0279314, Final residual = 1.67588e-05, No Iterations 2
smoothSolver:  Solving for Uz, Initial residual = 0.0307801, Final residual = 1.40258e-05, No Iterations 2
GAMG:  Solving for p, Initial residual = 0.184356, Final residual = 0.0069095, No Iterations 2
GAMG:  Solving for p, Initial residual = 0.121488, Final residual = 0.0079687, No Iterations 1
GAMG:  Solving for p, Initial residual = 0.0510043, Final residual = 0.00435161, No Iterations 1
GAMG:  Solving for p, Initial residual = 0.0309652, Final residual = 0.00278077, No Iterations 1
GAMG:  Solving for p, Initial residual = 0.0201508, Final residual = 0.0018607, No Iterations 1
time step continuity errors : sum local = 0.133155, global = 0.0197428, cumulative = 0.568367
ExecutionTime = 2.59 s  ClockTime = 3 s

Time = 34

smoothSolver:  Solving for Ux, Initial residual = 0.0305963, Final residual = 1.76169e-05, No Iterations 2
smoothSolver:  Solving for Uy, Initial residual = 0.0274814, Final residual = 1.61755e-05, No Iterations 2
smoothSolver:  Solving for Uz, Initial residual = 0.0278345, Final residual = 1.30017e-05, No Iterations 2
GAMG:  Solving for p, Initial residual = 0.180194, Final residual = 0.00759559, No Iterations 2
GAMG:  Solving for p, Initial residual = 0.152725, Final residual = 0.0100358, No Iterations 1
GAMG:  Solving for p, Initial residual = 0.065507, Final residual = 0.00587899, No Iterations 1
GAMG:  Solving for p, Initial residual = 0.0421594, Final residual = 0.00380744, No Iterations 1
GAMG:  Solving for p, Initial residual = 0.0270288, Final residual = 0.00257404, No Iterations 1
time step continuity errors : sum local = 0.162528, global = 0.0502632, cumulative = 0.61863
ExecutionTime = 2.67 s  ClockTime = 3 s

Time = 35

smoothSolver:  Solving for Ux, Initial residual = 0.030461, Final residual = 1.71406e-05, No Iterations 2
smoothSolver:  Solving for Uy, Initial residual = 0.0277168, Final residual = 1.58773e-05, No Iterations 2
smoothSolver:  Solving for Uz, Initial residual = 0.0237607, Final residual = 1.1725e-05, No Iterations 2
GAMG:  Solving for p, Initial residual = 0.186591, Final residual = 0.00818993, No Iterations 2
GAMG:  Solving for p, Initial residual = 0.155922, Final residual = 0.0106654, No Iterations 1
GAMG:  Solving for p, Initial residual = 0.0667846, Final residual = 0.00663839, No Iterations 1
GAMG:  Solving for p, Initial residual = 0.04682, Final residual = 0.00440733, No Iterations 1
GAMG:  Solving for p, Initial residual = 0.0306742, Final residual = 0.00133884, No Iterations 2
time step continuity errors : sum local = 0.0919849, global = 0.0109969, cumulative = 0.629627
ExecutionTime = 2.74 s  ClockTime = 3 s

Time = 36

smoothSolver:  Solving for Ux, Initial residual = 0.0305252, Final residual = 1.69614e-05, No Iterations 2
smoothSolver:  Solving for Uy, Initial residual = 0.0281306, Final residual = 1.56747e-05, No Iterations 2
smoothSolver:  Solving for Uz, Initial residual = 0.0201977, Final residual = 1.05088e-05, No Iterations 2
GAMG:  Solving for p, Initial residual = 0.206059, Final residual = 0.008305, No Iterations 2
GAMG:  Solving for p, Initial residual = 0.149939, Final residual = 0.0105542, No Iterations 1
GAMG:  Solving for p, Initial residual = 0.0645657, Final residual = 0.00287805, No Iterations 2
GAMG:  Solving for p, Initial residual = 0.0564795, Final residual = 0.00388717, No Iterations 1
GAMG:  Solving for p, Initial residual = 0.0277027, Final residual = 0.00116727, No Iterations 2
time step continuity errors : sum local = 0.0825246, global = 0.0137077, cumulative = 0.643334
ExecutionTime = 2.82 s  ClockTime = 3 s

Time = 37

smoothSolver:  Solving for Ux, Initial residual = 0.0304679, Final residual = 1.67698e-05, No Iterations 2
smoothSolver:  Solving for Uy, Initial residual = 0.0280944, Final residual = 1.54629e-05, No Iterations 2
smoothSolver:  Solving for Uz, Initial residual = 0.0183374, Final residual = 9.62369e-06, No Iterations 2
GAMG:  Solving for p, Initial residual = 0.237052, Final residual = 0.00864033, No Iterations 2
GAMG:  Solving for p, Initial residual = 0.13947, Final residual = 0.0100257, No Iterations 1
GAMG:  Solving for p, Initial residual = 0.0601704, Final residual = 0.00271438, No Iterations 2
GAMG:  Solving for p, Initial residual = 0.0535786, Final residual = 0.00377919, No Iterations 1
GAMG:  Solving for p, Initial residual = 0.0268476, Final residual = 0.00114276, No Iterations 2
time step continuity errors : sum local = 0.0754425, global = 0.0128468, cumulative = 0.656181
ExecutionTime = 2.89 s  ClockTime = 3 s

Time = 38

smoothSolver:  Solving for Ux, Initial residual = 0.0299747, Final residual = 1.65306e-05, No Iterations 2
smoothSolver:  Solving for Uy, Initial residual = 0.0274186, Final residual = 1.50591e-05, No Iterations 2
smoothSolver:  Solving for Uz, Initial residual = 0.01797, Final residual = 9.29417e-06, No Iterations 2
GAMG:  Solving for p, Initial residual = 0.239724, Final residual = 0.0236842, No Iterations 1
GAMG:  Solving for p, Initial residual = 0.109417, Final residual = 0.00472236, No Iterations 2
GAMG:  Solving for p, Initial residual = 0.0768675, Final residual = 0.00577005, No Iterations 1
GAMG:  Solving for p, Initial residual = 0.0384031, Final residual = 0.00163506, No Iterations 2
GAMG:  Solving for p, Initial residual = 0.0347983, Final residual = 0.00251405, No Iterations 1
time step continuity errors : sum local = 0.144437, global = 0.0643196, cumulative = 0.720501
ExecutionTime = 2.97 s  ClockTime = 3 s

Time = 39

smoothSolver:  Solving for Ux, Initial residual = 0.0291082, Final residual = 1.59528e-05, No Iterations 2
smoothSolver:  Solving for Uy, Initial residual = 0.0262522, Final residual = 1.4454e-05, No Iterations 2
smoothSolver:  Solving for Uz, Initial residual = 0.0181428, Final residual = 9.11286e-06, No Iterations 2
GAMG:  Solving for p, Initial residual = 0.22501, Final residual = 0.0215931, No Iterations 1
GAMG:  Solving for p, Initial residual = 0.0977963, Final residual = 0.00398049, No Iterations 2
GAMG:  Solving for p, Initial residual = 0.0701549, Final residual = 0.00503341, No Iterations 1
GAMG:  Solving for p, Initial residual = 0.0339778, Final residual = 0.00134563, No Iterations 2
GAMG:  Solving for p, Initial residual = 0.0281889, Final residual = 0.00206117, No Iterations 1
time step continuity errors : sum local = 0.0967264, global = 0.0319565, cumulative = 0.752457
ExecutionTime = 3.04 s  ClockTime = 3 s

Time = 40

smoothSolver:  Solving for Ux, Initial residual = 0.0280625, Final residual = 1.53905e-05, No Iterations 2
smoothSolver:  Solving for Uy, Initial residual = 0.0249761, Final residual = 1.37986e-05, No Iterations 2
smoothSolver:  Solving for Uz, Initial residual = 0.0181977, Final residual = 8.99677e-06, No Iterations 2
GAMG:  Solving for p, Initial residual = 0.215722, Final residual = 0.019302, No Iterations 1
GAMG:  Solving for p, Initial residual = 0.0952563, Final residual = 0.00932995, No Iterations 1
GAMG:  Solving for p, Initial residual = 0.0535375, Final residual = 0.00527019, No Iterations 1
GAMG:  Solving for p, Initial residual = 0.0327916, Final residual = 0.00319815, No Iterations 1
GAMG:  Solving for p, Initial residual = 0.0213181, Final residual = 0.00205677, No Iterations 1
time step continuity errors : sum local = 0.0869433, global = -0.0031572, cumulative = 0.7493
ExecutionTime = 3.11 s  ClockTime = 3 s

Time = 41

smoothSolver:  Solving for Ux, Initial residual = 0.0270238, Final residual = 1.47985e-05, No Iterations 2
smoothSolver:  Solving for Uy, Initial residual = 0.0238122, Final residual = 1.31541e-05, No Iterations 2
smoothSolver:  Solving for Uz, Initial residual = 0.018025, Final residual = 8.79282e-06, No Iterations 2
GAMG:  Solving for p, Initial residual = 0.212351, Final residual = 0.0184115, No Iterations 1
GAMG:  Solving for p, Initial residual = 0.0931087, Final residual = 0.00886422, No Iterations 1
GAMG:  Solving for p, Initial residual = 0.0471697, Final residual = 0.00197741, No Iterations 2
GAMG:  Solving for p, Initial residual = 0.0345669, Final residual = 0.00219179, No Iterations 1
GAMG:  Solving for p, Initial residual = 0.0168112, Final residual = 0.00148196, No Iterations 1
time step continuity errors : sum local = 0.070339, global = -0.0187014, cumulative = 0.730599
ExecutionTime = 3.18 s  ClockTime = 4 s

Time = 42

smoothSolver:  Solving for Ux, Initial residual = 0.0260476, Final residual = 1.43151e-05, No Iterations 2
smoothSolver:  Solving for Uy, Initial residual = 0.0228439, Final residual = 1.25763e-05, No Iterations 2
smoothSolver:  Solving for Uz, Initial residual = 0.0177403, Final residual = 8.63377e-06, No Iterations 2
GAMG:  Solving for p, Initial residual = 0.214024, Final residual = 0.0183988, No Iterations 1
GAMG:  Solving for p, Initial residual = 0.0870108, Final residual = 0.00827364, No Iterations 1
GAMG:  Solving for p, Initial residual = 0.044757, Final residual = 0.00192823, No Iterations 2
GAMG:  Solving for p, Initial residual = 0.0364775, Final residual = 0.00238709, No Iterations 1
GAMG:  Solving for p, Initial residual = 0.0174872, Final residual = 0.0016782, No Iterations 1
time step continuity errors : sum local = 0.0852714, global = -0.0244336, cumulative = 0.706165
ExecutionTime = 3.24 s  ClockTime = 4 s

Time = 43

smoothSolver:  Solving for Ux, Initial residual = 0.0251613, Final residual = 1.38069e-05, No Iterations 2
smoothSolver:  Solving for Uy, Initial residual = 0.0220828, Final residual = 1.2131e-05, No Iterations 2
smoothSolver:  Solving for Uz, Initial residual = 0.0175108, Final residual = 8.47885e-06, No Iterations 2
GAMG:  Solving for p, Initial residual = 0.198937, Final residual = 0.0172394, No Iterations 1
GAMG:  Solving for p, Initial residual = 0.0802731, Final residual = 0.0075947, No Iterations 1
GAMG:  Solving for p, Initial residual = 0.0435307, Final residual = 0.00194329, No Iterations 2
GAMG:  Solving for p, Initial residual = 0.0366574, Final residual = 0.00250719, No Iterations 1
GAMG:  Solving for p, Initial residual = 0.0178655, Final residual = 0.000739586, No Iterations 2
time step continuity errors : sum local = 0.038375, global = -0.00614794, cumulative = 0.700017
ExecutionTime = 3.31 s  ClockTime = 4 s

Time = 44

smoothSolver:  Solving for Ux, Initial residual = 0.0243907, Final residual = 1.34144e-05, No Iterations 2
smoothSolver:  Solving for Uy, Initial residual = 0.0214614, Final residual = 1.17846e-05, No Iterations 2
smoothSolver:  Solving for Uz, Initial residual = 0.0174065, Final residual = 8.39054e-06, No Iterations 2
GAMG:  Solving for p, Initial residual = 0.178366, Final residual = 0.0155106, No Iterations 1
GAMG:  Solving for p, Initial residual = 0.0721109, Final residual = 0.00686852, No Iterations 1
GAMG:  Solving for p, Initial residual = 0.0406623, Final residual = 0.00183566, No Iterations 2
GAMG:  Solving for p, Initial residual = 0.0339446, Final residual = 0.00241582, No Iterations 1
GAMG:  Solving for p, Initial residual = 0.0170528, Final residual = 0.000722749, No Iterations 2
time step continuity errors : sum local = 0.036563, global = -0.00640952, cumulative = 0.693607
ExecutionTime = 3.39 s  ClockTime = 4 s

Time = 45

smoothSolver:  Solving for Ux, Initial residual = 0.0237081, Final residual = 1.2945e-05, No Iterations 2
smoothSolver:  Solving for Uy, Initial residual = 0.0209662, Final residual = 1.14771e-05, No Iterations 2
smoothSolver:  Solving for Uz, Initial residual = 0.0173728, Final residual = 8.27726e-06, No Iterations 2
GAMG:  Solving for p, Initial residual = 0.163065, Final residual = 0.0140807, No Iterations 1
GAMG:  Solving for p, Initial residual = 0.0640147, Final residual = 0.00626108, No Iterations 1
GAMG:  Solving for p, Initial residual = 0.0366446, Final residual = 0.00162136, No Iterations 2
GAMG:  Solving for p, Initial residual = 0.0297732, Final residual = 0.00215594, No Iterations 1
GAMG:  Solving for p, Initial residual = 0.0153182, Final residual = 0.000640451, No Iterations 2
time step continuity errors : sum local = 0.0304002, global = -0.0052086, cumulative = 0.688399
ExecutionTime = 3.46 s  ClockTime = 4 s

Time = 46

smoothSolver:  Solving for Ux, Initial residual = 0.023148, Final residual = 1.25632e-05, No Iterations 2
smoothSolver:  Solving for Uy, Initial residual = 0.0206051, Final residual = 1.11862e-05, No Iterations 2
smoothSolver:  Solving for Uz, Initial residual = 0.0172766, Final residual = 8.17751e-06, No Iterations 2
GAMG:  Solving for p, Initial residual = 0.153263, Final residual = 0.012771, No Iterations 1
GAMG:  Solving for p, Initial residual = 0.0575632, Final residual = 0.00563788, No Iterations 1
GAMG:  Solving for p, Initial residual = 0.0322906, Final residual = 0.00139796, No Iterations 2
GAMG:  Solving for p, Initial residual = 0.0253168, Final residual = 0.00180238, No Iterations 1
GAMG:  Solving for p, Initial residual = 0.0130004, Final residual = 0.000516201, No Iterations 2
time step continuity errors : sum local = 0.0225082, global = -0.00181975, cumulative = 0.686579
ExecutionTime = 3.53 s  ClockTime = 4 s

Time = 47

smoothSolver:  Solving for Ux, Initial residual = 0.0227171, Final residual = 1.22167e-05, No Iterations 2
smoothSolver:  Solving for Uy, Initial residual = 0.0203959, Final residual = 1.09452e-05, No Iterations 2
smoothSolver:  Solving for Uz, Initial residual = 0.0170147, Final residual = 8.09465e-06, No Iterations 2
GAMG:  Solving for p, Initial residual = 0.147135, Final residual = 0.0113711, No Iterations 1
GAMG:  Solving for p, Initial residual = 0.0536336, Final residual = 0.00490763, No Iterations 1
GAMG:  Solving for p, Initial residual = 0.0287477, Final residual = 0.00277704, No Iterations 1
GAMG:  Solving for p, Initial residual = 0.0181737, Final residual = 0.00178101, No Iterations 1
GAMG:  Solving for p, Initial residual = 0.0121167, Final residual = 0.00118713, No Iterations 1
time step continuity errors : sum local = 0.046964, global = -0.00122815, cumulative = 0.685351
ExecutionTime = 3.61 s  ClockTime = 4 s

Time = 48

smoothSolver:  Solving for Ux, Initial residual = 0.0224479, Final residual = 1.19597e-05, No Iterations 2
smoothSolver:  Solving for Uy, Initial residual = 0.0203469, Final residual = 1.0819e-05, No Iterations 2
smoothSolver:  Solving for Uz, Initial residual = 0.0166176, Final residual = 7.9243e-06, No Iterations 2
GAMG:  Solving for p, Initial residual = 0.143073, Final residual = 0.0103582, No Iterations 1
GAMG:  Solving for p, Initial residual = 0.0525005, Final residual = 0.00455416, No Iterations 1
GAMG:  Solving for p, Initial residual = 0.0279548, Final residual = 0.00261554, No Iterations 1
GAMG:  Solving for p, Initial residual = 0.0180364, Final residual = 0.00165433, No Iterations 1
GAMG:  Solving for p, Initial residual = 0.0116825, Final residual = 0.00109589, No Iterations 1
time step continuity errors : sum local = 0.0389873, global = 0.00653649, cumulative = 0.691887
ExecutionTime = 3.67 s  ClockTime = 4 s

Time = 49

smoothSolver:  Solving for Ux, Initial residual = 0.0222314, Final residual = 1.16992e-05, No Iterations 2
smoothSolver:  Solving for Uy, Initial residual = 0.020386, Final residual = 1.06479e-05, No Iterations 2
smoothSolver:  Solving for Uz, Initial residual = 0.0161282, Final residual = 7.73481e-06, No Iterations 2
GAMG:  Solving for p, Initial residual = 0.141462, Final residual = 0.00995452, No Iterations 1
GAMG:  Solving for p, Initial residual = 0.0530082, Final residual = 0.00459179, No Iterations 1
GAMG:  Solving for p, Initial residual = 0.0297254, Final residual = 0.0028263, No Iterations 1
GAMG:  Solving for p, Initial residual = 0.0206421, Final residual = 0.00191656, No Iterations 1
GAMG:  Solving for p, Initial residual = 0.0142233, Final residual = 0.00135138, No Iterations 1
time step continuity errors : sum local = 0.0439346, global = 0.0122072, cumulative = 0.704095
ExecutionTime = 3.74 s  ClockTime = 4 s

Time = 50

smoothSolver:  Solving for Ux, Initial residual = 0.0220455, Final residual = 1.15059e-05, No Iterations 2
smoothSolver:  Solving for Uy, Initial residual = 0.0203535, Final residual = 1.05491e-05, No Iterations 2
smoothSolver:  Solving for Uz, Initial residual = 0.01566, Final residual = 7.53222e-06, No Iterations 2
GAMG:  Solving for p, Initial residual = 0.141706, Final residual = 0.0101032, No Iterations 1
GAMG:  Solving for p, Initial residual = 0.0538547, Final residual = 0.00477389, No Iterations 1
GAMG:  Solving for p, Initial residual = 0.0315294, Final residual = 0.00310391, No Iterations 1
GAMG:  Solving for p, Initial residual = 0.0230205, Final residual = 0.00222612, No Iterations 1
GAMG:  Solving for p, Initial residual = 0.0167546, Final residual = 0.00163269, No Iterations 1
time step continuity errors : sum local = 0.0500696, global = 0.0161532, cumulative = 0.720248
ExecutionTime = 3.81 s  ClockTime = 4 s

Time = 51

smoothSolver:  Solving for Ux, Initial residual = 0.0218135, Final residual = 1.13323e-05, No Iterations 2
smoothSolver:  Solving for Uy, Initial residual = 0.0202235, Final residual = 1.04664e-05, No Iterations 2
smoothSolver:  Solving for Uz, Initial residual = 0.0152979, Final residual = 7.33277e-06, No Iterations 2
GAMG:  Solving for p, Initial residual = 0.14293, Final residual = 0.0104989, No Iterations 1
GAMG:  Solving for p, Initial residual = 0.0539177, Final residual = 0.00497188, No Iterations 1
GAMG:  Solving for p, Initial residual = 0.0318788, Final residual = 0.0014119, No Iterations 2
GAMG:  Solving for p, Initial residual = 0.0294616, Final residual = 0.00207137, No Iterations 1
GAMG:  Solving for p, Initial residual = 0.0154834, Final residual = 0.000634868, No Iterations 2
time step continuity errors : sum local = 0.0187345, global = 0.00319685, cumulative = 0.723445
ExecutionTime = 3.88 s  ClockTime = 4 s

Time = 52

smoothSolver:  Solving for Ux, Initial residual = 0.0215147, Final residual = 1.11528e-05, No Iterations 2
smoothSolver:  Solving for Uy, Initial residual = 0.0199536, Final residual = 1.03675e-05, No Iterations 2
smoothSolver:  Solving for Uz, Initial residual = 0.0150599, Final residual = 7.17524e-06, No Iterations 2
GAMG:  Solving for p, Initial residual = 0.144295, Final residual = 0.0107515, No Iterations 1
GAMG:  Solving for p, Initial residual = 0.0527975, Final residual = 0.00500578, No Iterations 1
GAMG:  Solving for p, Initial residual = 0.0303343, Final residual = 0.00132191, No Iterations 2
GAMG:  Solving for p, Initial residual = 0.0269408, Final residual = 0.00194069, No Iterations 1
GAMG:  Solving for p, Initial residual = 0.0145023, Final residual = 0.000592699, No Iterations 2
time step continuity errors : sum local = 0.0172522, global = 0.00297031, cumulative = 0.726415
ExecutionTime = 3.95 s  ClockTime = 4 s

Time = 53

smoothSolver:  Solving for Ux, Initial residual = 0.0211293, Final residual = 1.09759e-05, No Iterations 2
smoothSolver:  Solving for Uy, Initial residual = 0.0195629, Final residual = 1.01686e-05, No Iterations 2
smoothSolver:  Solving for Uz, Initial residual = 0.0149548, Final residual = 7.08974e-06, No Iterations 2
GAMG:  Solving for p, Initial residual = 0.144236, Final residual = 0.0106219, No Iterations 1
GAMG:  Solving for p, Initial residual = 0.0505998, Final residual = 0.00483916, No Iterations 1
GAMG:  Solving for p, Initial residual = 0.0276689, Final residual = 0.00119135, No Iterations 2
GAMG:  Solving for p, Initial residual = 0.0230604, Final residual = 0.00167377, No Iterations 1
GAMG:  Solving for p, Initial residual = 0.0124907, Final residual = 0.000496992, No Iterations 2
time step continuity errors : sum local = 0.0145002, global = 0.00205316, cumulative = 0.728468
ExecutionTime = 4.03 s  ClockTime = 4 s

Time = 54

smoothSolver:  Solving for Ux, Initial residual = 0.0206932, Final residual = 1.06878e-05, No Iterations 2
smoothSolver:  Solving for Uy, Initial residual = 0.0191006, Final residual = 9.9265e-06, No Iterations 2
smoothSolver:  Solving for Uz, Initial residual = 0.0149247, Final residual = 7.00183e-06, No Iterations 2
GAMG:  Solving for p, Initial residual = 0.142414, Final residual = 0.0100591, No Iterations 1
GAMG:  Solving for p, Initial residual = 0.0481607, Final residual = 0.00443883, No Iterations 1
GAMG:  Solving for p, Initial residual = 0.024595, Final residual = 0.00101459, No Iterations 2
GAMG:  Solving for p, Initial residual = 0.0190547, Final residual = 0.00135, No Iterations 1
GAMG:  Solving for p, Initial residual = 0.0101382, Final residual = 0.000386624, No Iterations 2
time step continuity errors : sum local = 0.0113932, global = 0.000474446, cumulative = 0.728943
ExecutionTime = 4.1 s  ClockTime = 4 s

Time = 55

smoothSolver:  Solving for Ux, Initial residual = 0.0202264, Final residual = 1.04916e-05, No Iterations 2
smoothSolver:  Solving for Uy, Initial residual = 0.0186318, Final residual = 9.74977e-06, No Iterations 2
smoothSolver:  Solving for Uz, Initial residual = 0.0149364, Final residual = 6.96957e-06, No Iterations 2
GAMG:  Solving for p, Initial residual = 0.139037, Final residual = 0.00929853, No Iterations 1
GAMG:  Solving for p, Initial residual = 0.0458793, Final residual = 0.00392968, No Iterations 1
GAMG:  Solving for p, Initial residual = 0.021867, Final residual = 0.00213023, No Iterations 1
GAMG:  Solving for p, Initial residual = 0.0134437, Final residual = 0.000524816, No Iterations 2
GAMG:  Solving for p, Initial residual = 0.0104899, Final residual = 0.000720112, No Iterations 1
time step continuity errors : sum local = 0.0214722, global = 0.000607612, cumulative = 0.72955
ExecutionTime = 4.17 s  ClockTime = 5 s

Time = 56

smoothSolver:  Solving for Ux, Initial residual = 0.0197737, Final residual = 1.02547e-05, No Iterations 2
smoothSolver:  Solving for Uy, Initial residual = 0.0182224, Final residual = 9.51099e-06, No Iterations 2
smoothSolver:  Solving for Uz, Initial residual = 0.0149455, Final residual = 6.95e-06, No Iterations 2
GAMG:  Solving for p, Initial residual = 0.134854, Final residual = 0.00861633, No Iterations 1
GAMG:  Solving for p, Initial residual = 0.0438216, Final residual = 0.00348905, No Iterations 1
GAMG:  Solving for p, Initial residual = 0.0200802, Final residual = 0.00183825, No Iterations 1
GAMG:  Solving for p, Initial residual = 0.0119238, Final residual = 0.00112383, No Iterations 1
GAMG:  Solving for p, Initial residual = 0.0076198, Final residual = 0.000729792, No Iterations 1
time step continuity errors : sum local = 0.0217863, global = -0.00437475, cumulative = 0.725175
ExecutionTime = 4.24 s  ClockTime = 5 s

Time = 57

smoothSolver:  Solving for Ux, Initial residual = 0.0193593, Final residual = 1.00415e-05, No Iterations 2
smoothSolver:  Solving for Uy, Initial residual = 0.0178781, Final residual = 9.30073e-06, No Iterations 2
smoothSolver:  Solving for Uz, Initial residual = 0.0149186, Final residual = 6.9098e-06, No Iterations 2
GAMG:  Solving for p, Initial residual = 0.130327, Final residual = 0.00818051, No Iterations 1
GAMG:  Solving for p, Initial residual = 0.0420018, Final residual = 0.00325647, No Iterations 1
GAMG:  Solving for p, Initial residual = 0.0192207, Final residual = 0.00173499, No Iterations 1
GAMG:  Solving for p, Initial residual = 0.0115865, Final residual = 0.00107911, No Iterations 1
GAMG:  Solving for p, Initial residual = 0.00749678, Final residual = 0.000716625, No Iterations 1
time step continuity errors : sum local = 0.0213591, global = -0.00650082, cumulative = 0.718675
ExecutionTime = 4.3 s  ClockTime = 5 s

Time = 58

smoothSolver:  Solving for Ux, Initial residual = 0.0189947, Final residual = 9.85126e-06, No Iterations 2
smoothSolver:  Solving for Uy, Initial residual = 0.0175611, Final residual = 9.1493e-06, No Iterations 2
smoothSolver:  Solving for Uz, Initial residual = 0.014851, Final residual = 6.89246e-06, No Iterations 2
GAMG:  Solving for p, Initial residual = 0.12588, Final residual = 0.00789621, No Iterations 1
GAMG:  Solving for p, Initial residual = 0.0403266, Final residual = 0.00318043, No Iterations 1
GAMG:  Solving for p, Initial residual = 0.0187001, Final residual = 0.00172758, No Iterations 1
GAMG:  Solving for p, Initial residual = 0.01146, Final residual = 0.00110136, No Iterations 1
GAMG:  Solving for p, Initial residual = 0.00760872, Final residual = 0.000753505, No Iterations 1
time step continuity errors : sum local = 0.022254, global = -0.00756736, cumulative = 0.711107
ExecutionTime = 4.38 s  ClockTime = 5 s

Time = 59

smoothSolver:  Solving for Ux, Initial residual = 0.0186572, Final residual = 9.64282e-06, No Iterations 2
smoothSolver:  Solving for Uy, Initial residual = 0.0172775, Final residual = 8.97729e-06, No Iterations 2
smoothSolver:  Solving for Uz, Initial residual = 0.0147466, Final residual = 6.86223e-06, No Iterations 2
GAMG:  Solving for p, Initial residual = 0.121763, Final residual = 0.00770053, No Iterations 1
GAMG:  Solving for p, Initial residual = 0.0387772, Final residual = 0.00316665, No Iterations 1
GAMG:  Solving for p, Initial residual = 0.0181248, Final residual = 0.00172638, No Iterations 1
GAMG:  Solving for p, Initial residual = 0.0111185, Final residual = 0.00110387, No Iterations 1
GAMG:  Solving for p, Initial residual = 0.0074468, Final residual = 0.000318748, No Iterations 2
time step continuity errors : sum local = 0.00925633, global = -0.00121905, cumulative = 0.709888
ExecutionTime = 4.44 s  ClockTime = 5 s

Time = 60

smoothSolver:  Solving for Ux, Initial residual = 0.0183512, Final residual = 9.47232e-06, No Iterations 2
smoothSolver:  Solving for Uy, Initial residual = 0.0170571, Final residual = 8.79602e-06, No Iterations 2
smoothSolver:  Solving for Uz, Initial residual = 0.0146351, Final residual = 6.85458e-06, No Iterations 2
GAMG:  Solving for p, Initial residual = 0.118054, Final residual = 0.00742044, No Iterations 1
GAMG:  Solving for p, Initial residual = 0.0372345, Final residual = 0.00306097, No Iterations 1
GAMG:  Solving for p, Initial residual = 0.0173143, Final residual = 0.00165066, No Iterations 1
GAMG:  Solving for p, Initial residual = 0.0104056, Final residual = 0.000420487, No Iterations 2
GAMG:  Solving for p, Initial residual = 0.00814389, Final residual = 0.000578291, No Iterations 1
time step continuity errors : sum local = 0.0164819, global = -0.00609996, cumulative = 0.703788
ExecutionTime = 4.51 s  ClockTime = 5 s

Time = 61

smoothSolver:  Solving for Ux, Initial residual = 0.0180714, Final residual = 9.33104e-06, No Iterations 2
smoothSolver:  Solving for Uy, Initial residual = 0.0168591, Final residual = 8.66181e-06, No Iterations 2
smoothSolver:  Solving for Uz, Initial residual = 0.0144995, Final residual = 6.77642e-06, No Iterations 2
GAMG:  Solving for p, Initial residual = 0.11465, Final residual = 0.00709331, No Iterations 1
GAMG:  Solving for p, Initial residual = 0.0358858, Final residual = 0.00290246, No Iterations 1
GAMG:  Solving for p, Initial residual = 0.016436, Final residual = 0.00153958, No Iterations 1
GAMG:  Solving for p, Initial residual = 0.00963515, Final residual = 0.000955084, No Iterations 1
GAMG:  Solving for p, Initial residual = 0.00632167, Final residual = 0.000257234, No Iterations 2
time step continuity errors : sum local = 0.0071204, global = 0.000359534, cumulative = 0.704148
ExecutionTime = 4.59 s  ClockTime = 5 s

Time = 62

smoothSolver:  Solving for Ux, Initial residual = 0.0178271, Final residual = 9.16047e-06, No Iterations 2
smoothSolver:  Solving for Uy, Initial residual = 0.0167072, Final residual = 8.50835e-06, No Iterations 2
smoothSolver:  Solving for Uz, Initial residual = 0.0143704, Final residual = 6.73115e-06, No Iterations 2
GAMG:  Solving for p, Initial residual = 0.11173, Final residual = 0.00677078, No Iterations 1
GAMG:  Solving for p, Initial residual = 0.0346852, Final residual = 0.00271666, No Iterations 1
GAMG:  Solving for p, Initial residual = 0.0156444, Final residual = 0.00139969, No Iterations 1
GAMG:  Solving for p, Initial residual = 0.00898634, Final residual = 0.000847703, No Iterations 1
GAMG:  Solving for p, Initial residual = 0.00579016, Final residual = 0.000557959, No Iterations 1
time step continuity errors : sum local = 0.0150027, global = 0.000348724, cumulative = 0.704497
ExecutionTime = 4.65 s  ClockTime = 5 s

Time = 63

smoothSolver:  Solving for Ux, Initial residual = 0.0175987, Final residual = 9.01859e-06, No Iterations 2
smoothSolver:  Solving for Uy, Initial residual = 0.0165455, Final residual = 8.36378e-06, No Iterations 2
smoothSolver:  Solving for Uz, Initial residual = 0.014233, Final residual = 6.67137e-06, No Iterations 2
GAMG:  Solving for p, Initial residual = 0.109084, Final residual = 0.00652963, No Iterations 1
GAMG:  Solving for p, Initial residual = 0.0338196, Final residual = 0.00258532, No Iterations 1
GAMG:  Solving for p, Initial residual = 0.0151865, Final residual = 0.00132348, No Iterations 1
GAMG:  Solving for p, Initial residual = 0.00880348, Final residual = 0.000797136, No Iterations 1
GAMG:  Solving for p, Initial residual = 0.00567798, Final residual = 0.000524718, No Iterations 1
time step continuity errors : sum local = 0.0136763, global = 0.00247954, cumulative = 0.706976
ExecutionTime = 4.72 s  ClockTime = 5 s

Time = 64

smoothSolver:  Solving for Ux, Initial residual = 0.0173737, Final residual = 8.90624e-06, No Iterations 2
smoothSolver:  Solving for Uy, Initial residual = 0.0163898, Final residual = 8.24396e-06, No Iterations 2
smoothSolver:  Solving for Uz, Initial residual = 0.0141047, Final residual = 6.60411e-06, No Iterations 2
GAMG:  Solving for p, Initial residual = 0.107263, Final residual = 0.00635746, No Iterations 1
GAMG:  Solving for p, Initial residual = 0.033337, Final residual = 0.00254159, No Iterations 1
GAMG:  Solving for p, Initial residual = 0.0152728, Final residual = 0.00133789, No Iterations 1
GAMG:  Solving for p, Initial residual = 0.00921893, Final residual = 0.000835013, No Iterations 1
GAMG:  Solving for p, Initial residual = 0.00615866, Final residual = 0.000570101, No Iterations 1
time step continuity errors : sum local = 0.0144129, global = 0.00397869, cumulative = 0.710955
ExecutionTime = 4.79 s  ClockTime = 5 s

Time = 65

smoothSolver:  Solving for Ux, Initial residual = 0.0171611, Final residual = 8.74987e-06, No Iterations 2
smoothSolver:  Solving for Uy, Initial residual = 0.0162243, Final residual = 8.11301e-06, No Iterations 2
smoothSolver:  Solving for Uz, Initial residual = 0.0139784, Final residual = 6.53727e-06, No Iterations 2
GAMG:  Solving for p, Initial residual = 0.105265, Final residual = 0.00627712, No Iterations 1
GAMG:  Solving for p, Initial residual = 0.0329676, Final residual = 0.00257891, No Iterations 1
GAMG:  Solving for p, Initial residual = 0.0155061, Final residual = 0.00140836, No Iterations 1
GAMG:  Solving for p, Initial residual = 0.00975318, Final residual = 0.000916968, No Iterations 1
GAMG:  Solving for p, Initial residual = 0.00676651, Final residual = 0.000649069, No Iterations 1
time step continuity errors : sum local = 0.0159722, global = 0.0049738, cumulative = 0.715929
ExecutionTime = 4.85 s  ClockTime = 5 s

Time = 66

smoothSolver:  Solving for Ux, Initial residual = 0.0169621, Final residual = 8.60001e-06, No Iterations 2
smoothSolver:  Solving for Uy, Initial residual = 0.0160346, Final residual = 7.99223e-06, No Iterations 2
smoothSolver:  Solving for Uz, Initial residual = 0.013863, Final residual = 6.48618e-06, No Iterations 2
GAMG:  Solving for p, Initial residual = 0.103393, Final residual = 0.00621822, No Iterations 1
GAMG:  Solving for p, Initial residual = 0.0326076, Final residual = 0.00263682, No Iterations 1
GAMG:  Solving for p, Initial residual = 0.015673, Final residual = 0.00147428, No Iterations 1
GAMG:  Solving for p, Initial residual = 0.0101236, Final residual = 0.000982719, No Iterations 1
GAMG:  Solving for p, Initial residual = 0.00719182, Final residual = 0.000708123, No Iterations 1
time step continuity errors : sum local = 0.0170283, global = 0.0054969, cumulative = 0.721426
ExecutionTime = 4.92 s  ClockTime = 5 s

Time = 67

smoothSolver:  Solving for Ux, Initial residual = 0.0167497, Final residual = 8.46248e-06, No Iterations 2
smoothSolver:  Solving for Uy, Initial residual = 0.0158224, Final residual = 7.86404e-06, No Iterations 2
smoothSolver:  Solving for Uz, Initial residual = 0.0137668, Final residual = 6.41127e-06, No Iterations 2
GAMG:  Solving for p, Initial residual = 0.101426, Final residual = 0.00615214, No Iterations 1
GAMG:  Solving for p, Initial residual = 0.032162, Final residual = 0.00266613, No Iterations 1
GAMG:  Solving for p, Initial residual = 0.0155807, Final residual = 0.00150961, No Iterations 1
GAMG:  Solving for p, Initial residual = 0.0101783, Final residual = 0.00101271, No Iterations 1
GAMG:  Solving for p, Initial residual = 0.00729412, Final residual = 0.000310024, No Iterations 2
time step continuity errors : sum local = 0.00731322, global = 0.000943662, cumulative = 0.722369
ExecutionTime = 4.99 s  ClockTime = 5 s

Time = 68

smoothSolver:  Solving for Ux, Initial residual = 0.0165297, Final residual = 8.3294e-06, No Iterations 2
smoothSolver:  Solving for Uy, Initial residual = 0.0155963, Final residual = 7.73765e-06, No Iterations 2
smoothSolver:  Solving for Uz, Initial residual = 0.0136883, Final residual = 6.36517e-06, No Iterations 2
GAMG:  Solving for p, Initial residual = 0.0998691, Final residual = 0.00604293, No Iterations 1
GAMG:  Solving for p, Initial residual = 0.031588, Final residual = 0.00262105, No Iterations 1
GAMG:  Solving for p, Initial residual = 0.0151758, Final residual = 0.00147633, No Iterations 1
GAMG:  Solving for p, Initial residual = 0.00981051, Final residual = 0.000406715, No Iterations 2
GAMG:  Solving for p, Initial residual = 0.00845735, Final residual = 0.000597104, No Iterations 1
time step continuity errors : sum local = 0.0138047, global = 0.00537299, cumulative = 0.727742
ExecutionTime = 5.07 s  ClockTime = 5 s

Time = 69

smoothSolver:  Solving for Ux, Initial residual = 0.0162794, Final residual = 8.18498e-06, No Iterations 2
smoothSolver:  Solving for Uy, Initial residual = 0.0153667, Final residual = 7.64511e-06, No Iterations 2
smoothSolver:  Solving for Uz, Initial residual = 0.0136341, Final residual = 6.31559e-06, No Iterations 2
GAMG:  Solving for p, Initial residual = 0.0982294, Final residual = 0.00587359, No Iterations 1
GAMG:  Solving for p, Initial residual = 0.0308989, Final residual = 0.00251836, No Iterations 1
GAMG:  Solving for p, Initial residual = 0.0145198, Final residual = 0.00140259, No Iterations 1
GAMG:  Solving for p, Initial residual = 0.00913444, Final residual = 0.00037543, No Iterations 2
GAMG:  Solving for p, Initial residual = 0.00774332, Final residual = 0.000549897, No Iterations 1
time step continuity errors : sum local = 0.0125742, global = 0.00450018, cumulative = 0.732242
ExecutionTime = 5.13 s  ClockTime = 5 s

Time = 70

smoothSolver:  Solving for Ux, Initial residual = 0.0160228, Final residual = 8.05315e-06, No Iterations 2
smoothSolver:  Solving for Uy, Initial residual = 0.0151386, Final residual = 7.50677e-06, No Iterations 2
smoothSolver:  Solving for Uz, Initial residual = 0.013578, Final residual = 6.26753e-06, No Iterations 2
GAMG:  Solving for p, Initial residual = 0.0965504, Final residual = 0.00564843, No Iterations 1
GAMG:  Solving for p, Initial residual = 0.0301595, Final residual = 0.0023677, No Iterations 1
GAMG:  Solving for p, Initial residual = 0.0138252, Final residual = 0.00129199, No Iterations 1
GAMG:  Solving for p, Initial residual = 0.00836682, Final residual = 0.00033256, No Iterations 2
GAMG:  Solving for p, Initial residual = 0.00688637, Final residual = 0.000487088, No Iterations 1
time step continuity errors : sum local = 0.0110333, global = 0.00345122, cumulative = 0.735694
ExecutionTime = 5.2 s  ClockTime = 6 s

Time = 71

smoothSolver:  Solving for Ux, Initial residual = 0.0157643, Final residual = 7.90597e-06, No Iterations 2
smoothSolver:  Solving for Uy, Initial residual = 0.0149218, Final residual = 7.39277e-06, No Iterations 2
smoothSolver:  Solving for Uz, Initial residual = 0.0135304, Final residual = 6.21277e-06, No Iterations 2
GAMG:  Solving for p, Initial residual = 0.0947089, Final residual = 0.00540383, No Iterations 1
GAMG:  Solving for p, Initial residual = 0.0294076, Final residual = 0.00222005, No Iterations 1
GAMG:  Solving for p, Initial residual = 0.0131907, Final residual = 0.00118083, No Iterations 1
GAMG:  Solving for p, Initial residual = 0.0076347, Final residual = 0.000751937, No Iterations 1
GAMG:  Solving for p, Initial residual = 0.00512163, Final residual = 0.000207144, No Iterations 2
time step continuity errors : sum local = 0.00466224, global = 0.000486229, cumulative = 0.73618
ExecutionTime = 5.28 s  ClockTime = 6 s

Time = 72

smoothSolver:  Solving for Ux, Initial residual = 0.01551, Final residual = 7.72802e-06, No Iterations 2
smoothSolver:  Solving for Uy, Initial residual = 0.0147034, Final residual = 7.2651e-06, No Iterations 2
smoothSolver:  Solving for Uz, Initial residual = 0.0134734, Final residual = 6.14813e-06, No Iterations 2
GAMG:  Solving for p, Initial residual = 0.0927706, Final residual = 0.00519012, No Iterations 1
GAMG:  Solving for p, Initial residual = 0.0286231, Final residual = 0.00209044, No Iterations 1
GAMG:  Solving for p, Initial residual = 0.0126464, Final residual = 0.00107802, No Iterations 1
GAMG:  Solving for p, Initial residual = 0.00706201, Final residual = 0.000666677, No Iterations 1
GAMG:  Solving for p, Initial residual = 0.00454292, Final residual = 0.000451893, No Iterations 1
time step continuity errors : sum local = 0.0100806, global = 0.00169947, cumulative = 0.737879
ExecutionTime = 5.34 s  ClockTime = 6 s

Time = 73

smoothSolver:  Solving for Ux, Initial residual = 0.0152752, Final residual = 7.60229e-06, No Iterations 2
smoothSolver:  Solving for Uy, Initial residual = 0.0145071, Final residual = 7.13798e-06, No Iterations 2
smoothSolver:  Solving for Uz, Initial residual = 0.0134128, Final residual = 6.09829e-06, No Iterations 2
GAMG:  Solving for p, Initial residual = 0.0907674, Final residual = 0.0050416, No Iterations 1
GAMG:  Solving for p, Initial residual = 0.027904, Final residual = 0.00202144, No Iterations 1
GAMG:  Solving for p, Initial residual = 0.0122759, Final residual = 0.00101846, No Iterations 1
GAMG:  Solving for p, Initial residual = 0.00673768, Final residual = 0.000613607, No Iterations 1
GAMG:  Solving for p, Initial residual = 0.00421023, Final residual = 0.000405052, No Iterations 1
time step continuity errors : sum local = 0.00894783, global = 0.00112303, cumulative = 0.739002
ExecutionTime = 5.41 s  ClockTime = 6 s

Time = 74

smoothSolver:  Solving for Ux, Initial residual = 0.0150404, Final residual = 7.47121e-06, No Iterations 2
smoothSolver:  Solving for Uy, Initial residual = 0.0143079, Final residual = 7.05244e-06, No Iterations 2
smoothSolver:  Solving for Uz, Initial residual = 0.0133547, Final residual = 6.07002e-06, No Iterations 2
GAMG:  Solving for p, Initial residual = 0.0885231, Final residual = 0.00492947, No Iterations 1
GAMG:  Solving for p, Initial residual = 0.0272242, Final residual = 0.00197916, No Iterations 1
GAMG:  Solving for p, Initial residual = 0.0119636, Final residual = 0.000993074, No Iterations 1
GAMG:  Solving for p, Initial residual = 0.00654203, Final residual = 0.000590234, No Iterations 1
GAMG:  Solving for p, Initial residual = 0.00404978, Final residual = 0.000384043, No Iterations 1
time step continuity errors : sum local = 0.00839648, global = 0.000841941, cumulative = 0.739844
ExecutionTime = 5.48 s  ClockTime = 6 s

Time = 75

smoothSolver:  Solving for Ux, Initial residual = 0.014819, Final residual = 7.36297e-06, No Iterations 2
smoothSolver:  Solving for Uy, Initial residual = 0.0141248, Final residual = 6.93752e-06, No Iterations 2
smoothSolver:  Solving for Uz, Initial residual = 0.0132878, Final residual = 6.03648e-06, No Iterations 2
GAMG:  Solving for p, Initial residual = 0.0864162, Final residual = 0.00485542, No Iterations 1
GAMG:  Solving for p, Initial residual = 0.026662, Final residual = 0.00197187, No Iterations 1
GAMG:  Solving for p, Initial residual = 0.0117692, Final residual = 0.000993776, No Iterations 1
GAMG:  Solving for p, Initial residual = 0.00645404, Final residual = 0.000591278, No Iterations 1
GAMG:  Solving for p, Initial residual = 0.00400708, Final residual = 0.000383064, No Iterations 1
time step continuity errors : sum local = 0.0082798, global = 0.000920603, cumulative = 0.740765
ExecutionTime = 5.54 s  ClockTime = 6 s

Time = 76

smoothSolver:  Solving for Ux, Initial residual = 0.0145973, Final residual = 7.24354e-06, No Iterations 2
smoothSolver:  Solving for Uy, Initial residual = 0.0139666, Final residual = 6.83665e-06, No Iterations 2
smoothSolver:  Solving for Uz, Initial residual = 0.0132233, Final residual = 6.00383e-06, No Iterations 2
GAMG:  Solving for p, Initial residual = 0.0844682, Final residual = 0.00477666, No Iterations 1
GAMG:  Solving for p, Initial residual = 0.0261348, Final residual = 0.00195477, No Iterations 1
GAMG:  Solving for p, Initial residual = 0.0115802, Final residual = 0.000992086, No Iterations 1
GAMG:  Solving for p, Initial residual = 0.00640417, Final residual = 0.000589508, No Iterations 1
GAMG:  Solving for p, Initial residual = 0.00400615, Final residual = 0.000382259, No Iterations 1
time step continuity errors : sum local = 0.00815865, global = 0.00119893, cumulative = 0.741964
ExecutionTime = 5.62 s  ClockTime = 6 s

Time = 77

smoothSolver:  Solving for Ux, Initial residual = 0.0143854, Final residual = 7.11943e-06, No Iterations 2
smoothSolver:  Solving for Uy, Initial residual = 0.0138078, Final residual = 6.70599e-06, No Iterations 2
smoothSolver:  Solving for Uz, Initial residual = 0.01315, Final residual = 5.96005e-06, No Iterations 2
GAMG:  Solving for p, Initial residual = 0.0825531, Final residual = 0.00467598, No Iterations 1
GAMG:  Solving for p, Initial residual = 0.0256251, Final residual = 0.00193395, No Iterations 1
GAMG:  Solving for p, Initial residual = 0.0114116, Final residual = 0.000983797, No Iterations 1
GAMG:  Solving for p, Initial residual = 0.0063652, Final residual = 0.00058787, No Iterations 1
GAMG:  Solving for p, Initial residual = 0.00403043, Final residual = 0.000384777, No Iterations 1
time step continuity errors : sum local = 0.00810178, global = 0.00156171, cumulative = 0.743525
ExecutionTime = 5.68 s  ClockTime = 6 s

Time = 78

smoothSolver:  Solving for Ux, Initial residual = 0.0141859, Final residual = 6.98289e-06, No Iterations 2
smoothSolver:  Solving for Uy, Initial residual = 0.0136613, Final residual = 6.59992e-06, No Iterations 2
smoothSolver:  Solving for Uz, Initial residual = 0.0130729, Final residual = 5.91252e-06, No Iterations 2
GAMG:  Solving for p, Initial residual = 0.0806207, Final residual = 0.0045754, No Iterations 1
GAMG:  Solving for p, Initial residual = 0.0250935, Final residual = 0.0018951, No Iterations 1
GAMG:  Solving for p, Initial residual = 0.0112835, Final residual = 0.000969248, No Iterations 1
GAMG:  Solving for p, Initial residual = 0.00636973, Final residual = 0.000585917, No Iterations 1
GAMG:  Solving for p, Initial residual = 0.00409655, Final residual = 0.000388196, No Iterations 1
time step continuity errors : sum local = 0.00805513, global = 0.0019136, cumulative = 0.745439
ExecutionTime = 5.74 s  ClockTime = 6 s

Time = 79

smoothSolver:  Solving for Ux, Initial residual = 0.0139795, Final residual = 6.87404e-06, No Iterations 2
smoothSolver:  Solving for Uy, Initial residual = 0.0135166, Final residual = 6.52175e-06, No Iterations 2
smoothSolver:  Solving for Uz, Initial residual = 0.0129897, Final residual = 5.90933e-06, No Iterations 2
GAMG:  Solving for p, Initial residual = 0.078961, Final residual = 0.00446732, No Iterations 1
GAMG:  Solving for p, Initial residual = 0.0247432, Final residual = 0.00186371, No Iterations 1
GAMG:  Solving for p, Initial residual = 0.0112298, Final residual = 0.000963343, No Iterations 1
GAMG:  Solving for p, Initial residual = 0.0064475, Final residual = 0.000593025, No Iterations 1
GAMG:  Solving for p, Initial residual = 0.00422554, Final residual = 0.00040049, No Iterations 1
time step continuity errors : sum local = 0.00819398, global = 0.00222451, cumulative = 0.747664
ExecutionTime = 5.81 s  ClockTime = 6 s

Time = 80

smoothSolver:  Solving for Ux, Initial residual = 0.0137943, Final residual = 6.74213e-06, No Iterations 2
smoothSolver:  Solving for Uy, Initial residual = 0.0133693, Final residual = 6.39436e-06, No Iterations 2
smoothSolver:  Solving for Uz, Initial residual = 0.012902, Final residual = 5.84791e-06, No Iterations 2
GAMG:  Solving for p, Initial residual = 0.0771515, Final residual = 0.0043617, No Iterations 1
GAMG:  Solving for p, Initial residual = 0.0242534, Final residual = 0.00182545, No Iterations 1
GAMG:  Solving for p, Initial residual = 0.0111208, Final residual = 0.000954672, No Iterations 1
GAMG:  Solving for p, Initial residual = 0.00650319, Final residual = 0.00060094, No Iterations 1
GAMG:  Solving for p, Initial residual = 0.00434367, Final residual = 0.000414218, No Iterations 1
time step continuity errors : sum local = 0.00835192, global = 0.00246434, cumulative = 0.750128
ExecutionTime = 5.88 s  ClockTime = 6 s

Time = 81

smoothSolver:  Solving for Ux, Initial residual = 0.0136193, Final residual = 6.68008e-06, No Iterations 2
smoothSolver:  Solving for Uy, Initial residual = 0.0132336, Final residual = 6.32148e-06, No Iterations 2
smoothSolver:  Solving for Uz, Initial residual = 0.0128267, Final residual = 5.84816e-06, No Iterations 2
GAMG:  Solving for p, Initial residual = 0.0753951, Final residual = 0.0042671, No Iterations 1
GAMG:  Solving for p, Initial residual = 0.0237956, Final residual = 0.0017969, No Iterations 1
GAMG:  Solving for p, Initial residual = 0.0110725, Final residual = 0.000958821, No Iterations 1
GAMG:  Solving for p, Initial residual = 0.0066063, Final residual = 0.000617067, No Iterations 1
GAMG:  Solving for p, Initial residual = 0.00448382, Final residual = 0.000432641, No Iterations 1
time step continuity errors : sum local = 0.00860347, global = 0.00262854, cumulative = 0.752756
ExecutionTime = 5.95 s  ClockTime = 6 s

Time = 82

smoothSolver:  Solving for Ux, Initial residual = 0.0134479, Final residual = 6.60276e-06, No Iterations 2
smoothSolver:  Solving for Uy, Initial residual = 0.0130985, Final residual = 6.21395e-06, No Iterations 2
smoothSolver:  Solving for Uz, Initial residual = 0.0127531, Final residual = 5.78962e-06, No Iterations 2
GAMG:  Solving for p, Initial residual = 0.0740424, Final residual = 0.00419285, No Iterations 1
GAMG:  Solving for p, Initial residual = 0.0234521, Final residual = 0.00177061, No Iterations 1
GAMG:  Solving for p, Initial residual = 0.0110123, Final residual = 0.000962725, No Iterations 1
GAMG:  Solving for p, Initial residual = 0.00666808, Final residual = 0.000628863, No Iterations 1
GAMG:  Solving for p, Initial residual = 0.00458314, Final residual = 0.000445477, No Iterations 1
time step continuity errors : sum local = 0.00874017, global = 0.00268599, cumulative = 0.755442
ExecutionTime = 6.01 s  ClockTime = 6 s

Time = 83

smoothSolver:  Solving for Ux, Initial residual = 0.0132801, Final residual = 6.49705e-06, No Iterations 2
smoothSolver:  Solving for Uy, Initial residual = 0.012959, Final residual = 6.12802e-06, No Iterations 2
smoothSolver:  Solving for Uz, Initial residual = 0.0126805, Final residual = 5.75476e-06, No Iterations 2
GAMG:  Solving for p, Initial residual = 0.072723, Final residual = 0.00413477, No Iterations 1
[...]
GAMG:  Solving for p, Initial residual = 0.000759284, Final residual = 2.79994e-05, No Iterations 2
GAMG:  Solving for p, Initial residual = 0.000565087, Final residual = 4.30968e-05, No Iterations 1
time step continuity errors : sum local = 0.00059758, global = 2.42169e-05, cumulative = 0.886455
ExecutionTime = 140.36 s  ClockTime = 299 s

Time = 1981

smoothSolver:  Solving for Ux, Initial residual = 0.000672308, Final residual = 5.37168e-07, No Iterations 2
smoothSolver:  Solving for Uy, Initial residual = 0.000648595, Final residual = 4.94662e-07, No Iterations 2
smoothSolver:  Solving for Uz, Initial residual = 0.000225033, Final residual = 1.69883e-07, No Iterations 2
GAMG:  Solving for p, Initial residual = 0.00473343, Final residual = 0.000386545, No Iterations 1
GAMG:  Solving for p, Initial residual = 0.00219467, Final residual = 0.000198986, No Iterations 1
GAMG:  Solving for p, Initial residual = 0.00121372, Final residual = 0.000116514, No Iterations 1
GAMG:  Solving for p, Initial residual = 0.000777613, Final residual = 7.77488e-05, No Iterations 1
GAMG:  Solving for p, Initial residual = 0.000537651, Final residual = 2.03149e-05, No Iterations 2
time step continuity errors : sum local = 0.000281728, global = 2.4781e-05, cumulative = 0.88648
ExecutionTime = 140.42 s  ClockTime = 299 s

Time = 1982

smoothSolver:  Solving for Ux, Initial residual = 0.000665092, Final residual = 5.40427e-07, No Iterations 2
smoothSolver:  Solving for Uy, Initial residual = 0.000651156, Final residual = 4.98068e-07, No Iterations 2
smoothSolver:  Solving for Uz, Initial residual = 0.000225042, Final residual = 1.69986e-07, No Iterations 2
GAMG:  Solving for p, Initial residual = 0.00473745, Final residual = 0.00038077, No Iterations 1
GAMG:  Solving for p, Initial residual = 0.00217409, Final residual = 0.000194821, No Iterations 1
GAMG:  Solving for p, Initial residual = 0.00120037, Final residual = 0.000114304, No Iterations 1
GAMG:  Solving for p, Initial residual = 0.000764945, Final residual = 7.6083e-05, No Iterations 1
GAMG:  Solving for p, Initial residual = 0.000531063, Final residual = 2.00584e-05, No Iterations 2
time step continuity errors : sum local = 0.000278265, global = 2.97735e-05, cumulative = 0.886509
ExecutionTime = 140.49 s  ClockTime = 299 s

Time = 1983

smoothSolver:  Solving for Ux, Initial residual = 0.000658872, Final residual = 5.35251e-07, No Iterations 2
smoothSolver:  Solving for Uy, Initial residual = 0.000643273, Final residual = 4.91577e-07, No Iterations 2
smoothSolver:  Solving for Uz, Initial residual = 0.000224233, Final residual = 1.70812e-07, No Iterations 2
GAMG:  Solving for p, Initial residual = 0.00471484, Final residual = 0.000372071, No Iterations 1
GAMG:  Solving for p, Initial residual = 0.00210057, Final residual = 0.000187427, No Iterations 1
GAMG:  Solving for p, Initial residual = 0.00114076, Final residual = 0.000109106, No Iterations 1
GAMG:  Solving for p, Initial residual = 0.000720872, Final residual = 2.58209e-05, No Iterations 2
GAMG:  Solving for p, Initial residual = 0.000538072, Final residual = 4.12593e-05, No Iterations 1
time step continuity errors : sum local = 0.000572578, global = 3.35702e-05, cumulative = 0.886543
ExecutionTime = 140.56 s  ClockTime = 299 s

Time = 1984

smoothSolver:  Solving for Ux, Initial residual = 0.000660826, Final residual = 5.25733e-07, No Iterations 2
smoothSolver:  Solving for Uy, Initial residual = 0.000649223, Final residual = 4.81254e-07, No Iterations 2
smoothSolver:  Solving for Uz, Initial residual = 0.000225129, Final residual = 1.70478e-07, No Iterations 2
GAMG:  Solving for p, Initial residual = 0.00465052, Final residual = 0.000361414, No Iterations 1
GAMG:  Solving for p, Initial residual = 0.00206597, Final residual = 0.000180347, No Iterations 1
GAMG:  Solving for p, Initial residual = 0.00111135, Final residual = 0.000105544, No Iterations 1
GAMG:  Solving for p, Initial residual = 0.000698597, Final residual = 6.97674e-05, No Iterations 1
GAMG:  Solving for p, Initial residual = 0.000482955, Final residual = 1.78505e-05, No Iterations 2
time step continuity errors : sum local = 0.000247767, global = 2.01422e-05, cumulative = 0.886563
ExecutionTime = 140.63 s  ClockTime = 299 s

Time = 1985

smoothSolver:  Solving for Ux, Initial residual = 0.00066131, Final residual = 5.20493e-07, No Iterations 2
smoothSolver:  Solving for Uy, Initial residual = 0.000663793, Final residual = 4.79875e-07, No Iterations 2
smoothSolver:  Solving for Uz, Initial residual = 0.000226654, Final residual = 1.67597e-07, No Iterations 2
GAMG:  Solving for p, Initial residual = 0.00471997, Final residual = 0.000369864, No Iterations 1
GAMG:  Solving for p, Initial residual = 0.00209346, Final residual = 0.000181293, No Iterations 1
GAMG:  Solving for p, Initial residual = 0.00113161, Final residual = 0.000106181, No Iterations 1
GAMG:  Solving for p, Initial residual = 0.0007123, Final residual = 7.00021e-05, No Iterations 1
GAMG:  Solving for p, Initial residual = 0.000491532, Final residual = 1.76097e-05, No Iterations 2
time step continuity errors : sum local = 0.000244486, global = 7.6335e-06, cumulative = 0.886571
ExecutionTime = 140.71 s  ClockTime = 299 s

Time = 1986

smoothSolver:  Solving for Ux, Initial residual = 0.000663929, Final residual = 5.21631e-07, No Iterations 2
smoothSolver:  Solving for Uy, Initial residual = 0.000649933, Final residual = 4.82208e-07, No Iterations 2
smoothSolver:  Solving for Uz, Initial residual = 0.000224763, Final residual = 1.59951e-07, No Iterations 2
GAMG:  Solving for p, Initial residual = 0.00477706, Final residual = 0.000373475, No Iterations 1
GAMG:  Solving for p, Initial residual = 0.00214406, Final residual = 0.000183257, No Iterations 1
GAMG:  Solving for p, Initial residual = 0.00117449, Final residual = 0.000109081, No Iterations 1
GAMG:  Solving for p, Initial residual = 0.000746898, Final residual = 7.25515e-05, No Iterations 1
GAMG:  Solving for p, Initial residual = 0.000517215, Final residual = 5.16991e-05, No Iterations 1
time step continuity errors : sum local = 0.000717828, global = -8.81847e-06, cumulative = 0.886562
ExecutionTime = 140.77 s  ClockTime = 299 s

Time = 1987

smoothSolver:  Solving for Ux, Initial residual = 0.000656534, Final residual = 5.21036e-07, No Iterations 2
smoothSolver:  Solving for Uy, Initial residual = 0.000645703, Final residual = 4.89717e-07, No Iterations 2
smoothSolver:  Solving for Uz, Initial residual = 0.000223497, Final residual = 1.58169e-07, No Iterations 2
GAMG:  Solving for p, Initial residual = 0.00473177, Final residual = 0.000364172, No Iterations 1
GAMG:  Solving for p, Initial residual = 0.00212512, Final residual = 0.000179848, No Iterations 1
GAMG:  Solving for p, Initial residual = 0.00117535, Final residual = 0.00010804, No Iterations 1
GAMG:  Solving for p, Initial residual = 0.000752049, Final residual = 7.27458e-05, No Iterations 1
GAMG:  Solving for p, Initial residual = 0.000522612, Final residual = 1.90029e-05, No Iterations 2
time step continuity errors : sum local = 0.000263879, global = -7.37736e-06, cumulative = 0.886555
ExecutionTime = 140.84 s  ClockTime = 300 s

Time = 1988

smoothSolver:  Solving for Ux, Initial residual = 0.000649699, Final residual = 5.1236e-07, No Iterations 2
smoothSolver:  Solving for Uy, Initial residual = 0.000650002, Final residual = 4.98062e-07, No Iterations 2
smoothSolver:  Solving for Uz, Initial residual = 0.000223449, Final residual = 1.59922e-07, No Iterations 2
GAMG:  Solving for p, Initial residual = 0.00471707, Final residual = 0.000361233, No Iterations 1
GAMG:  Solving for p, Initial residual = 0.00209894, Final residual = 0.000177994, No Iterations 1
GAMG:  Solving for p, Initial residual = 0.00115932, Final residual = 0.000106336, No Iterations 1
GAMG:  Solving for p, Initial residual = 0.00074425, Final residual = 7.20651e-05, No Iterations 1
GAMG:  Solving for p, Initial residual = 0.000517044, Final residual = 1.92358e-05, No Iterations 2
time step continuity errors : sum local = 0.000267093, global = -1.79883e-05, cumulative = 0.886537
ExecutionTime = 140.92 s  ClockTime = 300 s

Time = 1989

smoothSolver:  Solving for Ux, Initial residual = 0.000662464, Final residual = 5.14997e-07, No Iterations 2
smoothSolver:  Solving for Uy, Initial residual = 0.000651324, Final residual = 4.94979e-07, No Iterations 2
smoothSolver:  Solving for Uz, Initial residual = 0.000224329, Final residual = 1.6465e-07, No Iterations 2
GAMG:  Solving for p, Initial residual = 0.00468799, Final residual = 0.000365362, No Iterations 1
GAMG:  Solving for p, Initial residual = 0.00209418, Final residual = 0.00017956, No Iterations 1
GAMG:  Solving for p, Initial residual = 0.00114152, Final residual = 0.000105311, No Iterations 1
GAMG:  Solving for p, Initial residual = 0.000732398, Final residual = 7.11633e-05, No Iterations 1
GAMG:  Solving for p, Initial residual = 0.000505747, Final residual = 1.85661e-05, No Iterations 2
time step continuity errors : sum local = 0.000257741, global = -1.64333e-05, cumulative = 0.88652
ExecutionTime = 140.98 s  ClockTime = 300 s

Time = 1990

smoothSolver:  Solving for Ux, Initial residual = 0.000665624, Final residual = 5.1546e-07, No Iterations 2
smoothSolver:  Solving for Uy, Initial residual = 0.00066036, Final residual = 5.06574e-07, No Iterations 2
smoothSolver:  Solving for Uz, Initial residual = 0.000223416, Final residual = 1.6377e-07, No Iterations 2
GAMG:  Solving for p, Initial residual = 0.00474223, Final residual = 0.000378696, No Iterations 1
GAMG:  Solving for p, Initial residual = 0.00214775, Final residual = 0.000186913, No Iterations 1
GAMG:  Solving for p, Initial residual = 0.00117975, Final residual = 0.000109286, No Iterations 1
GAMG:  Solving for p, Initial residual = 0.00075465, Final residual = 7.32485e-05, No Iterations 1
GAMG:  Solving for p, Initial residual = 0.000523791, Final residual = 5.22572e-05, No Iterations 1
time step continuity errors : sum local = 0.000725081, global = -3.38266e-05, cumulative = 0.886486
ExecutionTime = 141.06 s  ClockTime = 300 s

Time = 1991

smoothSolver:  Solving for Ux, Initial residual = 0.000663329, Final residual = 5.30841e-07, No Iterations 2
smoothSolver:  Solving for Uy, Initial residual = 0.00066386, Final residual = 5.26093e-07, No Iterations 2
smoothSolver:  Solving for Uz, Initial residual = 0.000221577, Final residual = 1.6806e-07, No Iterations 2
GAMG:  Solving for p, Initial residual = 0.00483509, Final residual = 0.000386857, No Iterations 1
GAMG:  Solving for p, Initial residual = 0.00221246, Final residual = 0.000196091, No Iterations 1
GAMG:  Solving for p, Initial residual = 0.0012284, Final residual = 0.00011498, No Iterations 1
GAMG:  Solving for p, Initial residual = 0.000785373, Final residual = 7.63396e-05, No Iterations 1
GAMG:  Solving for p, Initial residual = 0.000543395, Final residual = 5.42253e-05, No Iterations 1
time step continuity errors : sum local = 0.000752085, global = -3.34475e-05, cumulative = 0.886453
ExecutionTime = 141.12 s  ClockTime = 300 s

Time = 1992

smoothSolver:  Solving for Ux, Initial residual = 0.000656394, Final residual = 5.32547e-07, No Iterations 2
smoothSolver:  Solving for Uy, Initial residual = 0.000653369, Final residual = 5.1997e-07, No Iterations 2
smoothSolver:  Solving for Uz, Initial residual = 0.00022069, Final residual = 1.70446e-07, No Iterations 2
GAMG:  Solving for p, Initial residual = 0.00481662, Final residual = 0.000380722, No Iterations 1
GAMG:  Solving for p, Initial residual = 0.00220436, Final residual = 0.00019386, No Iterations 1
GAMG:  Solving for p, Initial residual = 0.00122844, Final residual = 0.000114619, No Iterations 1
GAMG:  Solving for p, Initial residual = 0.000783334, Final residual = 7.61598e-05, No Iterations 1
GAMG:  Solving for p, Initial residual = 0.000545029, Final residual = 5.43924e-05, No Iterations 1
time step continuity errors : sum local = 0.000754047, global = -3.04542e-05, cumulative = 0.886422
ExecutionTime = 141.18 s  ClockTime = 300 s

Time = 1993

smoothSolver:  Solving for Ux, Initial residual = 0.000646747, Final residual = 5.14283e-07, No Iterations 2
smoothSolver:  Solving for Uy, Initial residual = 0.000651499, Final residual = 5.1738e-07, No Iterations 2
smoothSolver:  Solving for Uz, Initial residual = 0.000221777, Final residual = 1.71835e-07, No Iterations 2
GAMG:  Solving for p, Initial residual = 0.00473122, Final residual = 0.000367813, No Iterations 1
GAMG:  Solving for p, Initial residual = 0.00213283, Final residual = 0.000186405, No Iterations 1
GAMG:  Solving for p, Initial residual = 0.00118015, Final residual = 0.000109636, No Iterations 1
GAMG:  Solving for p, Initial residual = 0.000748184, Final residual = 7.25595e-05, No Iterations 1
GAMG:  Solving for p, Initial residual = 0.000518159, Final residual = 1.8454e-05, No Iterations 2
time step continuity errors : sum local = 0.00025577, global = -1.45724e-05, cumulative = 0.886408
ExecutionTime = 141.26 s  ClockTime = 300 s

Time = 1994

smoothSolver:  Solving for Ux, Initial residual = 0.000651153, Final residual = 5.14962e-07, No Iterations 2
smoothSolver:  Solving for Uy, Initial residual = 0.000656335, Final residual = 5.21717e-07, No Iterations 2
smoothSolver:  Solving for Uz, Initial residual = 0.000224487, Final residual = 1.75741e-07, No Iterations 2
GAMG:  Solving for p, Initial residual = 0.00463491, Final residual = 0.000358782, No Iterations 1
GAMG:  Solving for p, Initial residual = 0.0020612, Final residual = 0.000177814, No Iterations 1
GAMG:  Solving for p, Initial residual = 0.00112947, Final residual = 0.000104328, No Iterations 1
GAMG:  Solving for p, Initial residual = 0.000718025, Final residual = 6.97113e-05, No Iterations 1
GAMG:  Solving for p, Initial residual = 0.000498448, Final residual = 1.79536e-05, No Iterations 2
time step continuity errors : sum local = 0.000248788, global = -6.98937e-06, cumulative = 0.886401
ExecutionTime = 141.33 s  ClockTime = 300 s

Time = 1995

smoothSolver:  Solving for Ux, Initial residual = 0.000661039, Final residual = 5.35465e-07, No Iterations 2
smoothSolver:  Solving for Uy, Initial residual = 0.000668843, Final residual = 5.26298e-07, No Iterations 2
smoothSolver:  Solving for Uz, Initial residual = 0.000224698, Final residual = 1.74573e-07, No Iterations 2
GAMG:  Solving for p, Initial residual = 0.00464764, Final residual = 0.000367227, No Iterations 1
GAMG:  Solving for p, Initial residual = 0.00208282, Final residual = 0.000179465, No Iterations 1
GAMG:  Solving for p, Initial residual = 0.00114561, Final residual = 0.000106398, No Iterations 1
GAMG:  Solving for p, Initial residual = 0.000729296, Final residual = 7.11409e-05, No Iterations 1
GAMG:  Solving for p, Initial residual = 0.000506065, Final residual = 1.84931e-05, No Iterations 2
time step continuity errors : sum local = 0.000256264, global = -7.00015e-07, cumulative = 0.8864
ExecutionTime = 141.39 s  ClockTime = 300 s

Time = 1996

smoothSolver:  Solving for Ux, Initial residual = 0.000672017, Final residual = 5.62017e-07, No Iterations 2
smoothSolver:  Solving for Uy, Initial residual = 0.000669549, Final residual = 5.07503e-07, No Iterations 2
smoothSolver:  Solving for Uz, Initial residual = 0.000224781, Final residual = 1.70905e-07, No Iterations 2
GAMG:  Solving for p, Initial residual = 0.00471454, Final residual = 0.000380065, No Iterations 1
GAMG:  Solving for p, Initial residual = 0.00214872, Final residual = 0.000187857, No Iterations 1
GAMG:  Solving for p, Initial residual = 0.0011837, Final residual = 0.000111362, No Iterations 1
GAMG:  Solving for p, Initial residual = 0.000759258, Final residual = 7.47771e-05, No Iterations 1
GAMG:  Solving for p, Initial residual = 0.000525635, Final residual = 1.93544e-05, No Iterations 2
time step continuity errors : sum local = 0.000268209, global = 1.00313e-06, cumulative = 0.886401
ExecutionTime = 141.47 s  ClockTime = 300 s

Time = 1997

smoothSolver:  Solving for Ux, Initial residual = 0.000672581, Final residual = 5.60366e-07, No Iterations 2
smoothSolver:  Solving for Uy, Initial residual = 0.000680251, Final residual = 5.13884e-07, No Iterations 2
smoothSolver:  Solving for Uz, Initial residual = 0.000225026, Final residual = 1.70209e-07, No Iterations 2
GAMG:  Solving for p, Initial residual = 0.00473024, Final residual = 0.000379707, No Iterations 1
GAMG:  Solving for p, Initial residual = 0.00217951, Final residual = 0.000189505, No Iterations 1
GAMG:  Solving for p, Initial residual = 0.00118695, Final residual = 0.000112122, No Iterations 1
GAMG:  Solving for p, Initial residual = 0.000757465, Final residual = 7.47466e-05, No Iterations 1
GAMG:  Solving for p, Initial residual = 0.000522023, Final residual = 1.89707e-05, No Iterations 2
time step continuity errors : sum local = 0.000262955, global = 8.55305e-06, cumulative = 0.88641
ExecutionTime = 141.53 s  ClockTime = 300 s

Time = 1998

smoothSolver:  Solving for Ux, Initial residual = 0.000677399, Final residual = 5.53776e-07, No Iterations 2
smoothSolver:  Solving for Uy, Initial residual = 0.000679581, Final residual = 5.07826e-07, No Iterations 2
smoothSolver:  Solving for Uz, Initial residual = 0.000225019, Final residual = 1.6765e-07, No Iterations 2
GAMG:  Solving for p, Initial residual = 0.00472005, Final residual = 0.000371663, No Iterations 1
GAMG:  Solving for p, Initial residual = 0.00215125, Final residual = 0.000187095, No Iterations 1
GAMG:  Solving for p, Initial residual = 0.00117302, Final residual = 0.000110458, No Iterations 1
GAMG:  Solving for p, Initial residual = 0.000750398, Final residual = 7.38851e-05, No Iterations 1
GAMG:  Solving for p, Initial residual = 0.00051697, Final residual = 1.87617e-05, No Iterations 2
time step continuity errors : sum local = 0.00026008, global = 8.27229e-06, cumulative = 0.886418
ExecutionTime = 141.61 s  ClockTime = 300 s

Time = 1999

smoothSolver:  Solving for Ux, Initial residual = 0.000681033, Final residual = 5.40471e-07, No Iterations 2
smoothSolver:  Solving for Uy, Initial residual = 0.00069181, Final residual = 5.10556e-07, No Iterations 2
smoothSolver:  Solving for Uz, Initial residual = 0.000224359, Final residual = 1.65257e-07, No Iterations 2
GAMG:  Solving for p, Initial residual = 0.00479934, Final residual = 0.000379432, No Iterations 1
GAMG:  Solving for p, Initial residual = 0.00221602, Final residual = 0.000194992, No Iterations 1
GAMG:  Solving for p, Initial residual = 0.00121096, Final residual = 0.000114243, No Iterations 1
GAMG:  Solving for p, Initial residual = 0.000780064, Final residual = 7.66581e-05, No Iterations 1
GAMG:  Solving for p, Initial residual = 0.000542134, Final residual = 1.98083e-05, No Iterations 2
time step continuity errors : sum local = 0.00027463, global = 1.31299e-05, cumulative = 0.886431
ExecutionTime = 141.67 s  ClockTime = 300 s

Time = 2000

smoothSolver:  Solving for Ux, Initial residual = 0.000672773, Final residual = 5.36081e-07, No Iterations 2
smoothSolver:  Solving for Uy, Initial residual = 0.000685307, Final residual = 5.08946e-07, No Iterations 2
smoothSolver:  Solving for Uz, Initial residual = 0.000224335, Final residual = 1.64555e-07, No Iterations 2
GAMG:  Solving for p, Initial residual = 0.00480547, Final residual = 0.00037726, No Iterations 1
GAMG:  Solving for p, Initial residual = 0.00220985, Final residual = 0.000192168, No Iterations 1
GAMG:  Solving for p, Initial residual = 0.00121184, Final residual = 0.000112437, No Iterations 1
GAMG:  Solving for p, Initial residual = 0.000781102, Final residual = 7.58025e-05, No Iterations 1
GAMG:  Solving for p, Initial residual = 0.00054545, Final residual = 5.44772e-05, No Iterations 1
time step continuity errors : sum local = 0.000755374, global = 2.75966e-05, cumulative = 0.886459
ExecutionTime = 141.86 s  ClockTime = 301 s

End

