/*---------------------------------------------------------------------------*\
| =========                 |                                                 |
| \\      /  F ield         | OpenFOAM: The Open Source CFD Toolbox           |
|  \\    /   O peration     | Version:  2506                                  |
|   \\  /    A nd           | Website:  www.openfoam.com                      |
|    \\/     M anipulation  |                                                 |
\*---------------------------------------------------------------------------*/
Build  : _615aae61-20250627 OPENFOAM=2506 version=2506
Arch   : "LSB;label=32;scalar=64"
Exec   : simpleFoam -noFunctionObjects -case /home/ubuntu/fan_CFD_dataset/cases/fan_4
Date   : Nov 07 2025
Time   : 15:15:04
Host   : ip-172-31-37-87
PID    : 178469
I/O    : uncollated
Case   : /home/ubuntu/fan_CFD_dataset/cases/fan_4
nProcs : 1
trapFpe: Floating point exception trapping enabled (FOAM_SIGFPE).
fileModificationChecking : Monitoring run-time modified files using timeStampMaster (fileModificationSkew 5, maxFileModificationPolls 20)
allowSystemOperations : Allowing user-supplied system call operations

// * * * * * * * * * * * * * * * * * * * * * * * * * * * * * * * * * * * * * //
Create time

Create mesh for time = 0


SIMPLE: convergence criteria
    field U	 tolerance 1e-05
    field p	 tolerance 0.0001

Reading field p

Reading field U

Reading/calculating face flux field phi

Selecting incompressible transport model Newtonian
Selecting turbulence model type laminar
Selecting laminar stress model Stokes
No MRF models present

No finite volume options present

Starting time loop

Time = 1

smoothSolver:  Solving for Ux, Initial residual = 1, Final residual = 0.000323064, No Iterations 2
smoothSolver:  Solving for Uy, Initial residual = 1, Final residual = 0.00031025, No Iterations 2
smoothSolver:  Solving for Uz, Initial residual = 1, Final residual = 0.000722644, No Iterations 2
GAMG:  Solving for p, Initial residual = 1, Final residual = 0.0698833, No Iterations 4
GAMG:  Solving for p, Initial residual = 0.191799, Final residual = 0.0135569, No Iterations 1
GAMG:  Solving for p, Initial residual = 0.0478021, Final residual = 0.00198351, No Iterations 2
GAMG:  Solving for p, Initial residual = 0.0312839, Final residual = 0.00236572, No Iterations 1
GAMG:  Solving for p, Initial residual = 0.012728, Final residual = 0.000686806, No Iterations 2
time step continuity errors : sum local = 4.98784, global = -0.62354, cumulative = -0.62354
ExecutionTime = 0.35 s  ClockTime = 0 s

Time = 2

smoothSolver:  Solving for Ux, Initial residual = 0.0885914, Final residual = 3.50832e-05, No Iterations 2
smoothSolver:  Solving for Uy, Initial residual = 0.0897824, Final residual = 3.49622e-05, No Iterations 2
smoothSolver:  Solving for Uz, Initial residual = 0.187762, Final residual = 6.35715e-05, No Iterations 2
GAMG:  Solving for p, Initial residual = 0.459734, Final residual = 0.0394736, No Iterations 4
GAMG:  Solving for p, Initial residual = 0.186563, Final residual = 0.0131769, No Iterations 1
GAMG:  Solving for p, Initial residual = 0.0532643, Final residual = 0.00230176, No Iterations 2
GAMG:  Solving for p, Initial residual = 0.0373671, Final residual = 0.00284905, No Iterations 1
GAMG:  Solving for p, Initial residual = 0.0170829, Final residual = 0.000898778, No Iterations 2
time step continuity errors : sum local = 6.19526, global = -0.474011, cumulative = -1.09755
ExecutionTime = 0.48 s  ClockTime = 0 s

Time = 3

smoothSolver:  Solving for Ux, Initial residual = 0.197135, Final residual = 9.10056e-05, No Iterations 2
smoothSolver:  Solving for Uy, Initial residual = 0.195769, Final residual = 9.03466e-05, No Iterations 2
smoothSolver:  Solving for Uz, Initial residual = 0.584689, Final residual = 0.000219285, No Iterations 2
GAMG:  Solving for p, Initial residual = 0.113573, Final residual = 0.0094944, No Iterations 3
GAMG:  Solving for p, Initial residual = 0.125758, Final residual = 0.00891801, No Iterations 1
GAMG:  Solving for p, Initial residual = 0.0362147, Final residual = 0.0017006, No Iterations 2
GAMG:  Solving for p, Initial residual = 0.0278868, Final residual = 0.00214109, No Iterations 1
GAMG:  Solving for p, Initial residual = 0.0120433, Final residual = 0.00064115, No Iterations 2
time step continuity errors : sum local = 2.98894, global = -0.245722, cumulative = -1.34327
ExecutionTime = 0.6 s  ClockTime = 0 s

Time = 4

smoothSolver:  Solving for Ux, Initial residual = 0.17466, Final residual = 8.01085e-05, No Iterations 2
smoothSolver:  Solving for Uy, Initial residual = 0.173126, Final residual = 7.93162e-05, No Iterations 2
smoothSolver:  Solving for Uz, Initial residual = 0.60802, Final residual = 0.000231453, No Iterations 2
GAMG:  Solving for p, Initial residual = 0.0723098, Final residual = 0.00531372, No Iterations 1
GAMG:  Solving for p, Initial residual = 0.0234285, Final residual = 0.00119461, No Iterations 2
GAMG:  Solving for p, Initial residual = 0.0199792, Final residual = 0.0015336, No Iterations 1
GAMG:  Solving for p, Initial residual = 0.00888349, Final residual = 0.00047242, No Iterations 2
GAMG:  Solving for p, Initial residual = 0.00810425, Final residual = 0.0006639, No Iterations 1
time step continuity errors : sum local = 1.8309, global = -0.432413, cumulative = -1.77569
ExecutionTime = 0.7 s  ClockTime = 0 s

Time = 5

smoothSolver:  Solving for Ux, Initial residual = 0.130035, Final residual = 5.82396e-05, No Iterations 2
smoothSolver:  Solving for Uy, Initial residual = 0.127479, Final residual = 5.69294e-05, No Iterations 2
smoothSolver:  Solving for Uz, Initial residual = 0.555586, Final residual = 0.00020937, No Iterations 2
GAMG:  Solving for p, Initial residual = 0.0761762, Final residual = 0.00617924, No Iterations 2
GAMG:  Solving for p, Initial residual = 0.147863, Final residual = 0.0103895, No Iterations 1
GAMG:  Solving for p, Initial residual = 0.0796517, Final residual = 0.00416288, No Iterations 2
GAMG:  Solving for p, Initial residual = 0.107518, Final residual = 0.00770804, No Iterations 1
GAMG:  Solving for p, Initial residual = 0.0494992, Final residual = 0.00257889, No Iterations 2
time step continuity errors : sum local = 1.76093, global = 0.219149, cumulative = -1.55654
ExecutionTime = 0.82 s  ClockTime = 0 s

Time = 6

smoothSolver:  Solving for Ux, Initial residual = 0.0916521, Final residual = 3.97055e-05, No Iterations 2
smoothSolver:  Solving for Uy, Initial residual = 0.0887023, Final residual = 3.8606e-05, No Iterations 2
smoothSolver:  Solving for Uz, Initial residual = 0.431771, Final residual = 0.000160816, No Iterations 2
GAMG:  Solving for p, Initial residual = 0.0904013, Final residual = 0.0083533, No Iterations 3
GAMG:  Solving for p, Initial residual = 0.314294, Final residual = 0.0219495, No Iterations 1
GAMG:  Solving for p, Initial residual = 0.116451, Final residual = 0.00564503, No Iterations 2
GAMG:  Solving for p, Initial residual = 0.0822498, Final residual = 0.00617633, No Iterations 1
GAMG:  Solving for p, Initial residual = 0.0345769, Final residual = 0.00182806, No Iterations 2
time step continuity errors : sum local = 3.09089, global = 0.241877, cumulative = -1.31466
ExecutionTime = 0.93 s  ClockTime = 1 s

Time = 7

smoothSolver:  Solving for Ux, Initial residual = 0.0675911, Final residual = 3.03027e-05, No Iterations 2
smoothSolver:  Solving for Uy, Initial residual = 0.0653654, Final residual = 3.02443e-05, No Iterations 2
smoothSolver:  Solving for Uz, Initial residual = 0.255685, Final residual = 0.000100954, No Iterations 2
GAMG:  Solving for p, Initial residual = 0.123425, Final residual = 0.00568116, No Iterations 4
GAMG:  Solving for p, Initial residual = 0.255029, Final residual = 0.0181806, No Iterations 1
GAMG:  Solving for p, Initial residual = 0.0819767, Final residual = 0.00367203, No Iterations 2
GAMG:  Solving for p, Initial residual = 0.0550195, Final residual = 0.00426776, No Iterations 1
GAMG:  Solving for p, Initial residual = 0.0238829, Final residual = 0.00130154, No Iterations 2
time step continuity errors : sum local = 3.54618, global = 0.288455, cumulative = -1.02621
ExecutionTime = 1.05 s  ClockTime = 1 s

Time = 8

smoothSolver:  Solving for Ux, Initial residual = 0.0627817, Final residual = 2.97222e-05, No Iterations 2
smoothSolver:  Solving for Uy, Initial residual = 0.0623368, Final residual = 3.01066e-05, No Iterations 2
smoothSolver:  Solving for Uz, Initial residual = 0.0939167, Final residual = 4.48255e-05, No Iterations 2
GAMG:  Solving for p, Initial residual = 0.278329, Final residual = 0.0270317, No Iterations 3
GAMG:  Solving for p, Initial residual = 0.207443, Final residual = 0.0149314, No Iterations 1
GAMG:  Solving for p, Initial residual = 0.0619018, Final residual = 0.00301698, No Iterations 2
GAMG:  Solving for p, Initial residual = 0.0456465, Final residual = 0.00357212, No Iterations 1
GAMG:  Solving for p, Initial residual = 0.0200132, Final residual = 0.00110383, No Iterations 2
time step continuity errors : sum local = 3.31068, global = 0.241507, cumulative = -0.784699
ExecutionTime = 1.17 s  ClockTime = 1 s

Time = 9

smoothSolver:  Solving for Ux, Initial residual = 0.0721489, Final residual = 3.52572e-05, No Iterations 2
smoothSolver:  Solving for Uy, Initial residual = 0.0738513, Final residual = 3.61331e-05, No Iterations 2
smoothSolver:  Solving for Uz, Initial residual = 0.158308, Final residual = 6.30598e-05, No Iterations 2
GAMG:  Solving for p, Initial residual = 0.228491, Final residual = 0.0214419, No Iterations 2
GAMG:  Solving for p, Initial residual = 0.146576, Final residual = 0.0104749, No Iterations 1
GAMG:  Solving for p, Initial residual = 0.0498427, Final residual = 0.00263957, No Iterations 2
GAMG:  Solving for p, Initial residual = 0.0402028, Final residual = 0.00314521, No Iterations 1
GAMG:  Solving for p, Initial residual = 0.0176401, Final residual = 0.000979435, No Iterations 2
time step continuity errors : sum local = 2.50035, global = 0.168747, cumulative = -0.615952
ExecutionTime = 1.28 s  ClockTime = 1 s

Time = 10

smoothSolver:  Solving for Ux, Initial residual = 0.082375, Final residual = 4.04993e-05, No Iterations 2
smoothSolver:  Solving for Uy, Initial residual = 0.0853149, Final residual = 4.12889e-05, No Iterations 2
smoothSolver:  Solving for Uz, Initial residual = 0.311271, Final residual = 0.000115168, No Iterations 2
GAMG:  Solving for p, Initial residual = 0.16207, Final residual = 0.0145803, No Iterations 1
GAMG:  Solving for p, Initial residual = 0.0640081, Final residual = 0.00350625, No Iterations 2
GAMG:  Solving for p, Initial residual = 0.049345, Final residual = 0.00387188, No Iterations 1
GAMG:  Solving for p, Initial residual = 0.0212431, Final residual = 0.00118109, No Iterations 2
GAMG:  Solving for p, Initial residual = 0.0190403, Final residual = 0.00159297, No Iterations 1
time step continuity errors : sum local = 2.7036, global = 0.642058, cumulative = 0.0261061
ExecutionTime = 1.39 s  ClockTime = 1 s

Time = 11

smoothSolver:  Solving for Ux, Initial residual = 0.0861218, Final residual = 4.22624e-05, No Iterations 2
smoothSolver:  Solving for Uy, Initial residual = 0.0886707, Final residual = 4.25791e-05, No Iterations 2
smoothSolver:  Solving for Uz, Initial residual = 0.391609, Final residual = 0.000140632, No Iterations 2
GAMG:  Solving for p, Initial residual = 0.142206, Final residual = 0.0134315, No Iterations 1
GAMG:  Solving for p, Initial residual = 0.0697024, Final residual = 0.00405728, No Iterations 2
GAMG:  Solving for p, Initial residual = 0.0554231, Final residual = 0.00369942, No Iterations 1
GAMG:  Solving for p, Initial residual = 0.0219597, Final residual = 0.00106596, No Iterations 2
GAMG:  Solving for p, Initial residual = 0.0215581, Final residual = 0.00148361, No Iterations 1
time step continuity errors : sum local = 1.12041, global = -0.228151, cumulative = -0.202045
ExecutionTime = 1.49 s  ClockTime = 1 s

Time = 12

smoothSolver:  Solving for Ux, Initial residual = 0.0857738, Final residual = 4.20719e-05, No Iterations 2
smoothSolver:  Solving for Uy, Initial residual = 0.0871636, Final residual = 4.2106e-05, No Iterations 2
smoothSolver:  Solving for Uz, Initial residual = 0.384548, Final residual = 0.000138104, No Iterations 2
GAMG:  Solving for p, Initial residual = 0.141403, Final residual = 0.00964951, No Iterations 2
GAMG:  Solving for p, Initial residual = 0.324482, Final residual = 0.0222779, No Iterations 1
GAMG:  Solving for p, Initial residual = 0.128413, Final residual = 0.00652452, No Iterations 2
GAMG:  Solving for p, Initial residual = 0.0900099, Final residual = 0.00636897, No Iterations 1
GAMG:  Solving for p, Initial residual = 0.0362697, Final residual = 0.00185362, No Iterations 2
time step continuity errors : sum local = 1.22477, global = -0.147795, cumulative = -0.34984
ExecutionTime = 1.61 s  ClockTime = 1 s

Time = 13

smoothSolver:  Solving for Ux, Initial residual = 0.0827302, Final residual = 4.09425e-05, No Iterations 2
smoothSolver:  Solving for Uy, Initial residual = 0.0831514, Final residual = 4.12287e-05, No Iterations 2
smoothSolver:  Solving for Uz, Initial residual = 0.276704, Final residual = 0.000101667, No Iterations 2
GAMG:  Solving for p, Initial residual = 0.163431, Final residual = 0.01558, No Iterations 2
GAMG:  Solving for p, Initial residual = 0.259007, Final residual = 0.0180076, No Iterations 1
GAMG:  Solving for p, Initial residual = 0.096094, Final residual = 0.00491943, No Iterations 2
GAMG:  Solving for p, Initial residual = 0.0685939, Final residual = 0.00501345, No Iterations 1
GAMG:  Solving for p, Initial residual = 0.0275133, Final residual = 0.00143555, No Iterations 2
time step continuity errors : sum local = 1.71773, global = -0.174137, cumulative = -0.523977
ExecutionTime = 1.72 s  ClockTime = 1 s

Time = 14

smoothSolver:  Solving for Ux, Initial residual = 0.0786782, Final residual = 3.94492e-05, No Iterations 2
smoothSolver:  Solving for Uy, Initial residual = 0.0795991, Final residual = 3.95841e-05, No Iterations 2
smoothSolver:  Solving for Uz, Initial residual = 0.125779, Final residual = 5.32072e-05, No Iterations 2
GAMG:  Solving for p, Initial residual = 0.248371, Final residual = 0.016868, No Iterations 3
GAMG:  Solving for p, Initial residual = 0.209031, Final residual = 0.0150704, No Iterations 1
GAMG:  Solving for p, Initial residual = 0.065218, Final residual = 0.00316456, No Iterations 2
GAMG:  Solving for p, Initial residual = 0.047957, Final residual = 0.00368501, No Iterations 1
GAMG:  Solving for p, Initial residual = 0.0207873, Final residual = 0.0011138, No Iterations 2
time step continuity errors : sum local = 1.65802, global = -0.135434, cumulative = -0.659411
ExecutionTime = 1.83 s  ClockTime = 1 s

Time = 15

smoothSolver:  Solving for Ux, Initial residual = 0.0739729, Final residual = 3.78841e-05, No Iterations 2
smoothSolver:  Solving for Uy, Initial residual = 0.0757852, Final residual = 3.82012e-05, No Iterations 2
smoothSolver:  Solving for Uz, Initial residual = 0.0889298, Final residual = 4.06212e-05, No Iterations 2
GAMG:  Solving for p, Initial residual = 0.333118, Final residual = 0.0313954, No Iterations 2
GAMG:  Solving for p, Initial residual = 0.16316, Final residual = 0.0118554, No Iterations 1
GAMG:  Solving for p, Initial residual = 0.0565127, Final residual = 0.00303387, No Iterations 2
GAMG:  Solving for p, Initial residual = 0.0449949, Final residual = 0.00347446, No Iterations 1
GAMG:  Solving for p, Initial residual = 0.019351, Final residual = 0.00105782, No Iterations 2
time step continuity errors : sum local = 1.46107, global = -0.114802, cumulative = -0.774213
ExecutionTime = 1.95 s  ClockTime = 2 s

Time = 16

smoothSolver:  Solving for Ux, Initial residual = 0.0680584, Final residual = 3.52201e-05, No Iterations 2
smoothSolver:  Solving for Uy, Initial residual = 0.0698554, Final residual = 3.55776e-05, No Iterations 2
smoothSolver:  Solving for Uz, Initial residual = 0.179493, Final residual = 6.61367e-05, No Iterations 2
GAMG:  Solving for p, Initial residual = 0.189083, Final residual = 0.011933, No Iterations 2
GAMG:  Solving for p, Initial residual = 0.1043, Final residual = 0.00843232, No Iterations 1
GAMG:  Solving for p, Initial residual = 0.0401774, Final residual = 0.00235264, No Iterations 2
GAMG:  Solving for p, Initial residual = 0.0355644, Final residual = 0.00289583, No Iterations 1
GAMG:  Solving for p, Initial residual = 0.0162651, Final residual = 0.000922807, No Iterations 2
time step continuity errors : sum local = 0.95462, global = -0.0573828, cumulative = -0.831596
ExecutionTime = 2.06 s  ClockTime = 2 s

Time = 17

smoothSolver:  Solving for Ux, Initial residual = 0.0602354, Final residual = 3.13797e-05, No Iterations 2
smoothSolver:  Solving for Uy, Initial residual = 0.0611099, Final residual = 3.13512e-05, No Iterations 2
smoothSolver:  Solving for Uz, Initial residual = 0.227614, Final residual = 8.11282e-05, No Iterations 2
GAMG:  Solving for p, Initial residual = 0.150776, Final residual = 0.00516012, No Iterations 2
GAMG:  Solving for p, Initial residual = 0.0716155, Final residual = 0.00639816, No Iterations 1
GAMG:  Solving for p, Initial residual = 0.0300983, Final residual = 0.00138533, No Iterations 2
GAMG:  Solving for p, Initial residual = 0.0213456, Final residual = 0.00210582, No Iterations 1
GAMG:  Solving for p, Initial residual = 0.0113698, Final residual = 0.00056081, No Iterations 2
time step continuity errors : sum local = 0.336492, global = 0.00473168, cumulative = -0.826864
ExecutionTime = 2.16 s  ClockTime = 2 s

Time = 18

smoothSolver:  Solving for Ux, Initial residual = 0.0524805, Final residual = 2.69736e-05, No Iterations 2
smoothSolver:  Solving for Uy, Initial residual = 0.0522273, Final residual = 2.67874e-05, No Iterations 2
smoothSolver:  Solving for Uz, Initial residual = 0.215127, Final residual = 7.56915e-05, No Iterations 2
GAMG:  Solving for p, Initial residual = 0.141311, Final residual = 0.00805007, No Iterations 2
GAMG:  Solving for p, Initial residual = 0.202984, Final residual = 0.0135485, No Iterations 1
GAMG:  Solving for p, Initial residual = 0.0920116, Final residual = 0.00458498, No Iterations 2
GAMG:  Solving for p, Initial residual = 0.0874457, Final residual = 0.00590927, No Iterations 1
GAMG:  Solving for p, Initial residual = 0.0343035, Final residual = 0.00168168, No Iterations 2
time step continuity errors : sum local = 0.406066, global = 0.0540027, cumulative = -0.772862
ExecutionTime = 2.28 s  ClockTime = 2 s

Time = 19

smoothSolver:  Solving for Ux, Initial residual = 0.0474684, Final residual = 2.40986e-05, No Iterations 2
smoothSolver:  Solving for Uy, Initial residual = 0.0465227, Final residual = 2.35131e-05, No Iterations 2
smoothSolver:  Solving for Uz, Initial residual = 0.160474, Final residual = 5.70364e-05, No Iterations 2
GAMG:  Solving for p, Initial residual = 0.148086, Final residual = 0.0123664, No Iterations 2
GAMG:  Solving for p, Initial residual = 0.262907, Final residual = 0.0180752, No Iterations 1
GAMG:  Solving for p, Initial residual = 0.0984558, Final residual = 0.0050538, No Iterations 2
GAMG:  Solving for p, Initial residual = 0.0710619, Final residual = 0.00505401, No Iterations 1
GAMG:  Solving for p, Initial residual = 0.0279796, Final residual = 0.00145516, No Iterations 2
time step continuity errors : sum local = 0.70257, global = 0.0853469, cumulative = -0.687515
ExecutionTime = 2.39 s  ClockTime = 2 s

Time = 20

smoothSolver:  Solving for Ux, Initial residual = 0.0451339, Final residual = 2.24166e-05, No Iterations 2
smoothSolver:  Solving for Uy, Initial residual = 0.0447907, Final residual = 2.20971e-05, No Iterations 2
smoothSolver:  Solving for Uz, Initial residual = 0.089072, Final residual = 3.42261e-05, No Iterations 2
GAMG:  Solving for p, Initial residual = 0.184555, Final residual = 0.0120511, No Iterations 3
GAMG:  Solving for p, Initial residual = 0.215869, Final residual = 0.0151786, No Iterations 1
GAMG:  Solving for p, Initial residual = 0.0686388, Final residual = 0.00333947, No Iterations 2
GAMG:  Solving for p, Initial residual = 0.0511507, Final residual = 0.00384849, No Iterations 1
GAMG:  Solving for p, Initial residual = 0.0217292, Final residual = 0.00115324, No Iterations 2
time step continuity errors : sum local = 0.774092, global = 0.0689177, cumulative = -0.618597
ExecutionTime = 2.51 s  ClockTime = 2 s

Time = 21

smoothSolver:  Solving for Ux, Initial residual = 0.0440044, Final residual = 2.17556e-05, No Iterations 2
smoothSolver:  Solving for Uy, Initial residual = 0.0449355, Final residual = 2.19819e-05, No Iterations 2
smoothSolver:  Solving for Uz, Initial residual = 0.0437009, Final residual = 2.10151e-05, No Iterations 2
GAMG:  Solving for p, Initial residual = 0.350221, Final residual = 0.0349712, No Iterations 2
GAMG:  Solving for p, Initial residual = 0.178477, Final residual = 0.012804, No Iterations 1
GAMG:  Solving for p, Initial residual = 0.0630546, Final residual = 0.00337419, No Iterations 2
GAMG:  Solving for p, Initial residual = 0.0493799, Final residual = 0.00376415, No Iterations 1
GAMG:  Solving for p, Initial residual = 0.0208104, Final residual = 0.00113601, No Iterations 2
time step continuity errors : sum local = 0.781272, global = 0.0686699, cumulative = -0.549927
ExecutionTime = 2.62 s  ClockTime = 2 s

Time = 22

smoothSolver:  Solving for Ux, Initial residual = 0.042684, Final residual = 2.10415e-05, No Iterations 2
smoothSolver:  Solving for Uy, Initial residual = 0.0447251, Final residual = 2.18713e-05, No Iterations 2
smoothSolver:  Solving for Uz, Initial residual = 0.0648034, Final residual = 2.69627e-05, No Iterations 2
GAMG:  Solving for p, Initial residual = 0.234039, Final residual = 0.0173221, No Iterations 2
GAMG:  Solving for p, Initial residual = 0.131411, Final residual = 0.010263, No Iterations 1
GAMG:  Solving for p, Initial residual = 0.04847, Final residual = 0.00277587, No Iterations 2
GAMG:  Solving for p, Initial residual = 0.0412932, Final residual = 0.00332081, No Iterations 1
GAMG:  Solving for p, Initial residual = 0.0184266, Final residual = 0.00103844, No Iterations 2
time step continuity errors : sum local = 0.600964, global = 0.0415995, cumulative = -0.508328
ExecutionTime = 2.74 s  ClockTime = 2 s

Time = 23

smoothSolver:  Solving for Ux, Initial residual = 0.0406696, Final residual = 1.9921e-05, No Iterations 2
smoothSolver:  Solving for Uy, Initial residual = 0.0430981, Final residual = 2.08048e-05, No Iterations 2
smoothSolver:  Solving for Uz, Initial residual = 0.102638, Final residual = 3.72491e-05, No Iterations 2
GAMG:  Solving for p, Initial residual = 0.174581, Final residual = 0.00794374, No Iterations 2
GAMG:  Solving for p, Initial residual = 0.0881732, Final residual = 0.008106, No Iterations 1
GAMG:  Solving for p, Initial residual = 0.0391458, Final residual = 0.00236667, No Iterations 2
GAMG:  Solving for p, Initial residual = 0.0332753, Final residual = 0.0029545, No Iterations 1
GAMG:  Solving for p, Initial residual = 0.0162223, Final residual = 0.000980327, No Iterations 2
time step continuity errors : sum local = 0.374817, global = 0.0214608, cumulative = -0.486867
ExecutionTime = 2.85 s  ClockTime = 2 s

Time = 24

smoothSolver:  Solving for Ux, Initial residual = 0.0385432, Final residual = 1.86464e-05, No Iterations 2
smoothSolver:  Solving for Uy, Initial residual = 0.0403501, Final residual = 1.95783e-05, No Iterations 2
smoothSolver:  Solving for Uz, Initial residual = 0.117674, Final residual = 4.13505e-05, No Iterations 2
GAMG:  Solving for p, Initial residual = 0.155915, Final residual = 0.00711412, No Iterations 2
GAMG:  Solving for p, Initial residual = 0.124328, Final residual = 0.00904073, No Iterations 1
GAMG:  Solving for p, Initial residual = 0.04665, Final residual = 0.00231795, No Iterations 2
GAMG:  Solving for p, Initial residual = 0.0392389, Final residual = 0.00299171, No Iterations 1
GAMG:  Solving for p, Initial residual = 0.0172833, Final residual = 0.000879718, No Iterations 2
time step continuity errors : sum local = 0.172214, global = -0.0117352, cumulative = -0.498602
ExecutionTime = 2.96 s  ClockTime = 3 s

Time = 25

smoothSolver:  Solving for Ux, Initial residual = 0.0370815, Final residual = 1.7791e-05, No Iterations 2
smoothSolver:  Solving for Uy, Initial residual = 0.0382638, Final residual = 1.82346e-05, No Iterations 2
smoothSolver:  Solving for Uz, Initial residual = 0.105598, Final residual = 3.67888e-05, No Iterations 2
GAMG:  Solving for p, Initial residual = 0.153131, Final residual = 0.0101756, No Iterations 2
GAMG:  Solving for p, Initial residual = 0.269387, Final residual = 0.018133, No Iterations 1
GAMG:  Solving for p, Initial residual = 0.0937958, Final residual = 0.00473454, No Iterations 2
GAMG:  Solving for p, Initial residual = 0.066864, Final residual = 0.00459817, No Iterations 1
GAMG:  Solving for p, Initial residual = 0.0258554, Final residual = 0.00130882, No Iterations 2
time step continuity errors : sum local = 0.253343, global = -0.0320214, cumulative = -0.530624
ExecutionTime = 3.06 s  ClockTime = 3 s

Time = 26

smoothSolver:  Solving for Ux, Initial residual = 0.0361144, Final residual = 1.72721e-05, No Iterations 2
smoothSolver:  Solving for Uy, Initial residual = 0.0370713, Final residual = 1.75112e-05, No Iterations 2
smoothSolver:  Solving for Uz, Initial residual = 0.0716701, Final residual = 2.61976e-05, No Iterations 2
GAMG:  Solving for p, Initial residual = 0.169142, Final residual = 0.0144907, No Iterations 2
GAMG:  Solving for p, Initial residual = 0.217341, Final residual = 0.0150272, No Iterations 1
GAMG:  Solving for p, Initial residual = 0.0777093, Final residual = 0.00402451, No Iterations 2
GAMG:  Solving for p, Initial residual = 0.0578302, Final residual = 0.00413899, No Iterations 1
GAMG:  Solving for p, Initial residual = 0.0227733, Final residual = 0.00120965, No Iterations 2
time step continuity errors : sum local = 0.352696, global = -0.0412011, cumulative = -0.571825
ExecutionTime = 3.18 s  ClockTime = 3 s

Time = 27

smoothSolver:  Solving for Ux, Initial residual = 0.0348869, Final residual = 1.67649e-05, No Iterations 2
smoothSolver:  Solving for Uy, Initial residual = 0.0360146, Final residual = 1.701e-05, No Iterations 2
smoothSolver:  Solving for Uz, Initial residual = 0.0381572, Final residual = 1.63024e-05, No Iterations 2
GAMG:  Solving for p, Initial residual = 0.229487, Final residual = 0.0213862, No Iterations 2
GAMG:  Solving for p, Initial residual = 0.180572, Final residual = 0.0126786, No Iterations 1
GAMG:  Solving for p, Initial residual = 0.0640245, Final residual = 0.00337924, No Iterations 2
GAMG:  Solving for p, Initial residual = 0.049699, Final residual = 0.00368586, No Iterations 1
GAMG:  Solving for p, Initial residual = 0.020361, Final residual = 0.001101, No Iterations 2
time step continuity errors : sum local = 0.374617, global = -0.0370829, cumulative = -0.608907
ExecutionTime = 3.29 s  ClockTime = 3 s

Time = 28

smoothSolver:  Solving for Ux, Initial residual = 0.0329483, Final residual = 1.59734e-05, No Iterations 2
smoothSolver:  Solving for Uy, Initial residual = 0.034301, Final residual = 1.63436e-05, No Iterations 2
smoothSolver:  Solving for Uz, Initial residual = 0.0329283, Final residual = 1.45929e-05, No Iterations 2
GAMG:  Solving for p, Initial residual = 0.274395, Final residual = 0.0219245, No Iterations 2
GAMG:  Solving for p, Initial residual = 0.142374, Final residual = 0.0105295, No Iterations 1
GAMG:  Solving for p, Initial residual = 0.0510731, Final residual = 0.00282799, No Iterations 2
GAMG:  Solving for p, Initial residual = 0.0423525, Final residual = 0.00328188, No Iterations 1
GAMG:  Solving for p, Initial residual = 0.0182718, Final residual = 0.00100862, No Iterations 2
time step continuity errors : sum local = 0.327182, global = -0.0271414, cumulative = -0.636049
ExecutionTime = 3.4 s  ClockTime = 3 s

Time = 29

smoothSolver:  Solving for Ux, Initial residual = 0.0303239, Final residual = 1.49724e-05, No Iterations 2
smoothSolver:  Solving for Uy, Initial residual = 0.0316895, Final residual = 1.54267e-05, No Iterations 2
smoothSolver:  Solving for Uz, Initial residual = 0.0475326, Final residual = 1.81301e-05, No Iterations 2
GAMG:  Solving for p, Initial residual = 0.189705, Final residual = 0.0117718, No Iterations 2
GAMG:  Solving for p, Initial residual = 0.101927, Final residual = 0.00857896, No Iterations 1
GAMG:  Solving for p, Initial residual = 0.041043, Final residual = 0.0025179, No Iterations 2
GAMG:  Solving for p, Initial residual = 0.0373492, Final residual = 0.00304609, No Iterations 1
GAMG:  Solving for p, Initial residual = 0.0169009, Final residual = 0.000962956, No Iterations 2
time step continuity errors : sum local = 0.243958, global = -0.0159317, cumulative = -0.651981
ExecutionTime = 3.52 s  ClockTime = 3 s

Time = 30

smoothSolver:  Solving for Ux, Initial residual = 0.0275592, Final residual = 1.38988e-05, No Iterations 2
smoothSolver:  Solving for Uy, Initial residual = 0.0285647, Final residual = 1.42753e-05, No Iterations 2
smoothSolver:  Solving for Uz, Initial residual = 0.057597, Final residual = 2.05299e-05, No Iterations 2
GAMG:  Solving for p, Initial residual = 0.160173, Final residual = 0.00718888, No Iterations 2
GAMG:  Solving for p, Initial residual = 0.0860579, Final residual = 0.00814753, No Iterations 1
GAMG:  Solving for p, Initial residual = 0.0367803, Final residual = 0.00184528, No Iterations 2
GAMG:  Solving for p, Initial residual = 0.0267242, Final residual = 0.000958987, No Iterations 2
GAMG:  Solving for p, Initial residual = 0.0158526, Final residual = 0.000574437, No Iterations 2
time step continuity errors : sum local = 0.0960472, global = -0.0139505, cumulative = -0.665931
ExecutionTime = 3.63 s  ClockTime = 3 s

Time = 31

smoothSolver:  Solving for Ux, Initial residual = 0.0253452, Final residual = 1.28021e-05, No Iterations 2
smoothSolver:  Solving for Uy, Initial residual = 0.0258272, Final residual = 1.30045e-05, No Iterations 2
smoothSolver:  Solving for Uz, Initial residual = 0.0560711, Final residual = 1.97694e-05, No Iterations 2
GAMG:  Solving for p, Initial residual = 0.149058, Final residual = 0.00772362, No Iterations 2
GAMG:  Solving for p, Initial residual = 0.158697, Final residual = 0.010835, No Iterations 1
GAMG:  Solving for p, Initial residual = 0.0605051, Final residual = 0.00295051, No Iterations 2
GAMG:  Solving for p, Initial residual = 0.0586798, Final residual = 0.00410458, No Iterations 1
GAMG:  Solving for p, Initial residual = 0.0240754, Final residual = 0.00118922, No Iterations 2
time step continuity errors : sum local = 0.0937766, global = 0.00758983, cumulative = -0.658341
ExecutionTime = 3.75 s  ClockTime = 3 s

Time = 32

smoothSolver:  Solving for Ux, Initial residual = 0.0240381, Final residual = 1.18668e-05, No Iterations 2
smoothSolver:  Solving for Uy, Initial residual = 0.0242495, Final residual = 1.20815e-05, No Iterations 2
smoothSolver:  Solving for Uz, Initial residual = 0.0446467, Final residual = 1.61353e-05, No Iterations 2
GAMG:  Solving for p, Initial residual = 0.150815, Final residual = 0.0101092, No Iterations 2
GAMG:  Solving for p, Initial residual = 0.204382, Final residual = 0.0138363, No Iterations 1
GAMG:  Solving for p, Initial residual = 0.0724616, Final residual = 0.00368298, No Iterations 2
GAMG:  Solving for p, Initial residual = 0.0541799, Final residual = 0.00375576, No Iterations 1
GAMG:  Solving for p, Initial residual = 0.0212165, Final residual = 0.00109406, No Iterations 2
time step continuity errors : sum local = 0.136478, global = 0.016821, cumulative = -0.64152
ExecutionTime = 3.87 s  ClockTime = 3 s

Time = 33

smoothSolver:  Solving for Ux, Initial residual = 0.0233729, Final residual = 1.12043e-05, No Iterations 2
smoothSolver:  Solving for Uy, Initial residual = 0.023668, Final residual = 1.15633e-05, No Iterations 2
smoothSolver:  Solving for Uz, Initial residual = 0.0295051, Final residual = 1.17108e-05, No Iterations 2
GAMG:  Solving for p, Initial residual = 0.170363, Final residual = 0.0131961, No Iterations 2
GAMG:  Solving for p, Initial residual = 0.172719, Final residual = 0.011938, No Iterations 1
GAMG:  Solving for p, Initial residual = 0.0626754, Final residual = 0.00326541, No Iterations 2
GAMG:  Solving for p, Initial residual = 0.0487216, Final residual = 0.00351302, No Iterations 1
GAMG:  Solving for p, Initial residual = 0.0195738, Final residual = 0.00105554, No Iterations 2
time step continuity errors : sum local = 0.167556, global = 0.0186948, cumulative = -0.622826
ExecutionTime = 3.97 s  ClockTime = 4 s

Time = 34

smoothSolver:  Solving for Ux, Initial residual = 0.0228542, Final residual = 1.08239e-05, No Iterations 2
smoothSolver:  Solving for Uy, Initial residual = 0.0234852, Final residual = 1.12027e-05, No Iterations 2
smoothSolver:  Solving for Uz, Initial residual = 0.0205081, Final residual = 9.16875e-06, No Iterations 2
GAMG:  Solving for p, Initial residual = 0.231034, Final residual = 0.0172662, No Iterations 2
GAMG:  Solving for p, Initial residual = 0.143738, Final residual = 0.010227, No Iterations 1
GAMG:  Solving for p, Initial residual = 0.0524031, Final residual = 0.00282663, No Iterations 2
GAMG:  Solving for p, Initial residual = 0.0428127, Final residual = 0.00322395, No Iterations 1
GAMG:  Solving for p, Initial residual = 0.0179828, Final residual = 0.000989044, No Iterations 2
time step continuity errors : sum local = 0.166051, global = 0.0159027, cumulative = -0.606923
ExecutionTime = 4.09 s  ClockTime = 4 s

Time = 35

smoothSolver:  Solving for Ux, Initial residual = 0.022136, Final residual = 1.03422e-05, No Iterations 2
smoothSolver:  Solving for Uy, Initial residual = 0.0231118, Final residual = 1.08755e-05, No Iterations 2
smoothSolver:  Solving for Uz, Initial residual = 0.0210286, Final residual = 8.98193e-06, No Iterations 2
GAMG:  Solving for p, Initial residual = 0.212465, Final residual = 0.0135142, No Iterations 2
GAMG:  Solving for p, Initial residual = 0.112554, Final residual = 0.00870289, No Iterations 1
GAMG:  Solving for p, Initial residual = 0.0427581, Final residual = 0.00248865, No Iterations 2
GAMG:  Solving for p, Initial residual = 0.0378534, Final residual = 0.00298382, No Iterations 1
GAMG:  Solving for p, Initial residual = 0.016684, Final residual = 0.000934448, No Iterations 2
time step continuity errors : sum local = 0.139832, global = 0.0111335, cumulative = -0.595789
ExecutionTime = 4.2 s  ClockTime = 4 s

Time = 36

smoothSolver:  Solving for Ux, Initial residual = 0.0212932, Final residual = 9.86419e-06, No Iterations 2
smoothSolver:  Solving for Uy, Initial residual = 0.0224669, Final residual = 1.04894e-05, No Iterations 2
smoothSolver:  Solving for Uz, Initial residual = 0.0253707, Final residual = 9.7741e-06, No Iterations 2
GAMG:  Solving for p, Initial residual = 0.171525, Final residual = 0.00815729, No Iterations 2
GAMG:  Solving for p, Initial residual = 0.0883605, Final residual = 0.00771228, No Iterations 1
GAMG:  Solving for p, Initial residual = 0.0377361, Final residual = 0.0022558, No Iterations 2
GAMG:  Solving for p, Initial residual = 0.0327543, Final residual = 0.00279609, No Iterations 1
GAMG:  Solving for p, Initial residual = 0.0153542, Final residual = 0.000901534, No Iterations 2
time step continuity errors : sum local = 0.101714, global = 0.0070353, cumulative = -0.588754
ExecutionTime = 4.31 s  ClockTime = 4 s

Time = 37

smoothSolver:  Solving for Ux, Initial residual = 0.0205412, Final residual = 9.39172e-06, No Iterations 2
smoothSolver:  Solving for Uy, Initial residual = 0.0216825, Final residual = 9.99907e-06, No Iterations 2
smoothSolver:  Solving for Uz, Initial residual = 0.0274949, Final residual = 9.99532e-06, No Iterations 2
GAMG:  Solving for p, Initial residual = 0.154993, Final residual = 0.00628707, No Iterations 2
GAMG:  Solving for p, Initial residual = 0.0915408, Final residual = 0.00758771, No Iterations 1
GAMG:  Solving for p, Initial residual = 0.0363054, Final residual = 0.00166107, No Iterations 2
GAMG:  Solving for p, Initial residual = 0.0274073, Final residual = 0.00239494, No Iterations 1
GAMG:  Solving for p, Initial residual = 0.0132377, Final residual = 0.000585785, No Iterations 2
time step continuity errors : sum local = 0.0456618, global = -0.00728487, cumulative = -0.596039
ExecutionTime = 4.42 s  ClockTime = 4 s

Time = 38

smoothSolver:  Solving for Ux, Initial residual = 0.0200741, Final residual = 9.08212e-06, No Iterations 2
smoothSolver:  Solving for Uy, Initial residual = 0.0210518, Final residual = 9.60072e-06, No Iterations 2
smoothSolver:  Solving for Uz, Initial residual = 0.0256803, Final residual = 9.35929e-06, No Iterations 2
GAMG:  Solving for p, Initial residual = 0.148088, Final residual = 0.0074891, No Iterations 2
GAMG:  Solving for p, Initial residual = 0.161243, Final residual = 0.0108586, No Iterations 1
GAMG:  Solving for p, Initial residual = 0.0564949, Final residual = 0.0027211, No Iterations 2
GAMG:  Solving for p, Initial residual = 0.0415308, Final residual = 0.00288778, No Iterations 1
GAMG:  Solving for p, Initial residual = 0.0166171, Final residual = 0.000815524, No Iterations 2
time step continuity errors : sum local = 0.049271, global = -0.00458956, cumulative = -0.600628
ExecutionTime = 4.53 s  ClockTime = 4 s

Time = 39

smoothSolver:  Solving for Ux, Initial residual = 0.0197561, Final residual = 8.7969e-06, No Iterations 2
smoothSolver:  Solving for Uy, Initial residual = 0.0205993, Final residual = 9.26089e-06, No Iterations 2
smoothSolver:  Solving for Uz, Initial residual = 0.0208854, Final residual = 7.86586e-06, No Iterations 2
GAMG:  Solving for p, Initial residual = 0.151409, Final residual = 0.00906724, No Iterations 2
GAMG:  Solving for p, Initial residual = 0.141721, Final residual = 0.00949378, No Iterations 1
GAMG:  Solving for p, Initial residual = 0.0493245, Final residual = 0.00249965, No Iterations 2
GAMG:  Solving for p, Initial residual = 0.0390383, Final residual = 0.0027251, No Iterations 1
GAMG:  Solving for p, Initial residual = 0.0154734, Final residual = 0.000809286, No Iterations 2
time step continuity errors : sum local = 0.0663891, global = -0.00766351, cumulative = -0.608292
ExecutionTime = 4.64 s  ClockTime = 4 s

Time = 40

smoothSolver:  Solving for Ux, Initial residual = 0.0194472, Final residual = 8.66123e-06, No Iterations 2
smoothSolver:  Solving for Uy, Initial residual = 0.0202057, Final residual = 9.02425e-06, No Iterations 2
smoothSolver:  Solving for Uz, Initial residual = 0.0165155, Final residual = 6.63198e-06, No Iterations 2
GAMG:  Solving for p, Initial residual = 0.16822, Final residual = 0.0105876, No Iterations 2
GAMG:  Solving for p, Initial residual = 0.121509, Final residual = 0.00832028, No Iterations 1
GAMG:  Solving for p, Initial residual = 0.04357, Final residual = 0.00228925, No Iterations 2
GAMG:  Solving for p, Initial residual = 0.0359637, Final residual = 0.00260289, No Iterations 1
GAMG:  Solving for p, Initial residual = 0.0146616, Final residual = 0.000800508, No Iterations 2
time step continuity errors : sum local = 0.0750105, global = -0.0079236, cumulative = -0.616216
ExecutionTime = 4.76 s  ClockTime = 4 s

Time = 41

smoothSolver:  Solving for Ux, Initial residual = 0.018975, Final residual = 8.44801e-06, No Iterations 2
smoothSolver:  Solving for Uy, Initial residual = 0.0197163, Final residual = 8.74337e-06, No Iterations 2
smoothSolver:  Solving for Uz, Initial residual = 0.0149915, Final residual = 6.19759e-06, No Iterations 2
GAMG:  Solving for p, Initial residual = 0.19932, Final residual = 0.01136, No Iterations 2
GAMG:  Solving for p, Initial residual = 0.100223, Final residual = 0.00714379, No Iterations 1
GAMG:  Solving for p, Initial residual = 0.0364491, Final residual = 0.00202262, No Iterations 2
GAMG:  Solving for p, Initial residual = 0.0319104, Final residual = 0.00240931, No Iterations 1
GAMG:  Solving for p, Initial residual = 0.0135829, Final residual = 0.000756757, No Iterations 2
time step continuity errors : sum local = 0.070567, global = -0.00649527, cumulative = -0.622711
ExecutionTime = 4.86 s  ClockTime = 4 s

Time = 42

smoothSolver:  Solving for Ux, Initial residual = 0.0183462, Final residual = 8.18395e-06, No Iterations 2
smoothSolver:  Solving for Uy, Initial residual = 0.0190632, Final residual = 8.49937e-06, No Iterations 2
smoothSolver:  Solving for Uz, Initial residual = 0.0157766, Final residual = 6.33628e-06, No Iterations 2
GAMG:  Solving for p, Initial residual = 0.160212, Final residual = 0.00780945, No Iterations 2
GAMG:  Solving for p, Initial residual = 0.0776716, Final residual = 0.0060706, No Iterations 1
GAMG:  Solving for p, Initial residual = 0.0301463, Final residual = 0.00181413, No Iterations 2
GAMG:  Solving for p, Initial residual = 0.0282966, Final residual = 0.00222827, No Iterations 1
GAMG:  Solving for p, Initial residual = 0.0125247, Final residual = 0.000708592, No Iterations 2
time step continuity errors : sum local = 0.0578968, global = -0.00452398, cumulative = -0.627235
ExecutionTime = 4.98 s  ClockTime = 5 s

Time = 43

smoothSolver:  Solving for Ux, Initial residual = 0.0176463, Final residual = 7.88112e-06, No Iterations 2
smoothSolver:  Solving for Uy, Initial residual = 0.0182918, Final residual = 8.18257e-06, No Iterations 2
smoothSolver:  Solving for Uz, Initial residual = 0.0167432, Final residual = 6.46952e-06, No Iterations 2
GAMG:  Solving for p, Initial residual = 0.141182, Final residual = 0.0057186, No Iterations 2
GAMG:  Solving for p, Initial residual = 0.0658814, Final residual = 0.00587242, No Iterations 1
GAMG:  Solving for p, Initial residual = 0.0272083, Final residual = 0.00136327, No Iterations 2
GAMG:  Solving for p, Initial residual = 0.0211563, Final residual = 0.00191419, No Iterations 1
GAMG:  Solving for p, Initial residual = 0.0105344, Final residual = 0.000610956, No Iterations 2
time step continuity errors : sum local = 0.0393348, global = -0.00280341, cumulative = -0.630038
ExecutionTime = 5.08 s  ClockTime = 5 s

Time = 44

smoothSolver:  Solving for Ux, Initial residual = 0.0170018, Final residual = 7.55405e-06, No Iterations 2
smoothSolver:  Solving for Uy, Initial residual = 0.0175313, Final residual = 7.87747e-06, No Iterations 2
smoothSolver:  Solving for Uz, Initial residual = 0.0165509, Final residual = 6.30458e-06, No Iterations 2
GAMG:  Solving for p, Initial residual = 0.132641, Final residual = 0.00487683, No Iterations 2
GAMG:  Solving for p, Initial residual = 0.075447, Final residual = 0.00557377, No Iterations 1
GAMG:  Solving for p, Initial residual = 0.0279971, Final residual = 0.00131888, No Iterations 2
GAMG:  Solving for p, Initial residual = 0.021538, Final residual = 0.00168717, No Iterations 1
GAMG:  Solving for p, Initial residual = 0.00973867, Final residual = 0.000448215, No Iterations 2
time step continuity errors : sum local = 0.0218848, global = 0.00245024, cumulative = -0.627588
ExecutionTime = 5.2 s  ClockTime = 5 s

Time = 45

smoothSolver:  Solving for Ux, Initial residual = 0.0164817, Final residual = 7.28193e-06, No Iterations 2
smoothSolver:  Solving for Uy, Initial residual = 0.0169196, Final residual = 7.55596e-06, No Iterations 2
smoothSolver:  Solving for Uz, Initial residual = 0.0153182, Final residual = 5.88617e-06, No Iterations 2
GAMG:  Solving for p, Initial residual = 0.129281, Final residual = 0.00562473, No Iterations 2
GAMG:  Solving for p, Initial residual = 0.0995191, Final residual = 0.00664178, No Iterations 1
GAMG:  Solving for p, Initial residual = 0.0336721, Final residual = 0.0016143, No Iterations 2
GAMG:  Solving for p, Initial residual = 0.026249, Final residual = 0.00182259, No Iterations 1
GAMG:  Solving for p, Initial residual = 0.0105771, Final residual = 0.000521331, No Iterations 2
time step continuity errors : sum local = 0.0253888, global = 0.00257305, cumulative = -0.625015
ExecutionTime = 5.3 s  ClockTime = 5 s

Time = 46

smoothSolver:  Solving for Ux, Initial residual = 0.0161036, Final residual = 7.04581e-06, No Iterations 2
smoothSolver:  Solving for Uy, Initial residual = 0.0165, Final residual = 7.29089e-06, No Iterations 2
smoothSolver:  Solving for Uz, Initial residual = 0.0137266, Final residual = 5.38051e-06, No Iterations 2
GAMG:  Solving for p, Initial residual = 0.13176, Final residual = 0.00623852, No Iterations 2
GAMG:  Solving for p, Initial residual = 0.0897668, Final residual = 0.00602198, No Iterations 1
GAMG:  Solving for p, Initial residual = 0.0315406, Final residual = 0.00159928, No Iterations 2
GAMG:  Solving for p, Initial residual = 0.0263789, Final residual = 0.00185978, No Iterations 1
GAMG:  Solving for p, Initial residual = 0.0106822, Final residual = 0.00056231, No Iterations 2
time step continuity errors : sum local = 0.0319997, global = 0.00354437, cumulative = -0.621471
ExecutionTime = 5.41 s  ClockTime = 5 s

Time = 47

smoothSolver:  Solving for Ux, Initial residual = 0.0157977, Final residual = 6.86927e-06, No Iterations 2
smoothSolver:  Solving for Uy, Initial residual = 0.0162312, Final residual = 7.0714e-06, No Iterations 2
smoothSolver:  Solving for Uz, Initial residual = 0.0125945, Final residual = 5.04098e-06, No Iterations 2
GAMG:  Solving for p, Initial residual = 0.141015, Final residual = 0.00652661, No Iterations 2
GAMG:  Solving for p, Initial residual = 0.0786094, Final residual = 0.00542468, No Iterations 1
GAMG:  Solving for p, Initial residual = 0.0283681, Final residual = 0.00151023, No Iterations 2
GAMG:  Solving for p, Initial residual = 0.0248578, Final residual = 0.00181651, No Iterations 1
GAMG:  Solving for p, Initial residual = 0.0103681, Final residual = 0.000568227, No Iterations 2
time step continuity errors : sum local = 0.0340765, global = 0.00348139, cumulative = -0.617989
ExecutionTime = 5.53 s  ClockTime = 5 s

Time = 48

smoothSolver:  Solving for Ux, Initial residual = 0.0155141, Final residual = 6.69066e-06, No Iterations 2
smoothSolver:  Solving for Uy, Initial residual = 0.0160281, Final residual = 6.90381e-06, No Iterations 2
smoothSolver:  Solving for Uz, Initial residual = 0.0121574, Final residual = 4.88755e-06, No Iterations 2
GAMG:  Solving for p, Initial residual = 0.146321, Final residual = 0.0144584, No Iterations 1
GAMG:  Solving for p, Initial residual = 0.0553244, Final residual = 0.00309165, No Iterations 2
GAMG:  Solving for p, Initial residual = 0.0408135, Final residual = 0.00305828, No Iterations 1
GAMG:  Solving for p, Initial residual = 0.0162911, Final residual = 0.000923129, No Iterations 2
GAMG:  Solving for p, Initial residual = 0.015845, Final residual = 0.00121866, No Iterations 1
time step continuity errors : sum local = 0.0712209, global = 0.0228315, cumulative = -0.595158
ExecutionTime = 5.63 s  ClockTime = 5 s

Time = 49

smoothSolver:  Solving for Ux, Initial residual = 0.0152511, Final residual = 6.52996e-06, No Iterations 2
smoothSolver:  Solving for Uy, Initial residual = 0.0158218, Final residual = 6.75042e-06, No Iterations 2
smoothSolver:  Solving for Uz, Initial residual = 0.0121356, Final residual = 4.83246e-06, No Iterations 2
GAMG:  Solving for p, Initial residual = 0.131132, Final residual = 0.0129986, No Iterations 1
GAMG:  Solving for p, Initial residual = 0.0454934, Final residual = 0.00244859, No Iterations 2
GAMG:  Solving for p, Initial residual = 0.0334092, Final residual = 0.00271304, No Iterations 1
GAMG:  Solving for p, Initial residual = 0.0143492, Final residual = 0.000840752, No Iterations 2
GAMG:  Solving for p, Initial residual = 0.0137862, Final residual = 0.00112178, No Iterations 1
time step continuity errors : sum local = 0.0587048, global = 0.0192773, cumulative = -0.57588
ExecutionTime = 5.74 s  ClockTime = 5 s

Time = 50

smoothSolver:  Solving for Ux, Initial residual = 0.0150136, Final residual = 6.37078e-06, No Iterations 2
smoothSolver:  Solving for Uy, Initial residual = 0.0156054, Final residual = 6.59977e-06, No Iterations 2
smoothSolver:  Solving for Uz, Initial residual = 0.0121059, Final residual = 4.73205e-06, No Iterations 2
GAMG:  Solving for p, Initial residual = 0.12249, Final residual = 0.00402157, No Iterations 2
GAMG:  Solving for p, Initial residual = 0.0478534, Final residual = 0.00417388, No Iterations 1
GAMG:  Solving for p, Initial residual = 0.0189641, Final residual = 0.000896198, No Iterations 2
GAMG:  Solving for p, Initial residual = 0.0136114, Final residual = 0.00129893, No Iterations 1
GAMG:  Solving for p, Initial residual = 0.00693727, Final residual = 0.000340672, No Iterations 2
time step continuity errors : sum local = 0.0153369, global = 0.00195269, cumulative = -0.573928
ExecutionTime = 5.85 s  ClockTime = 5 s

Time = 51

smoothSolver:  Solving for Ux, Initial residual = 0.0148099, Final residual = 6.23612e-06, No Iterations 2
smoothSolver:  Solving for Uy, Initial residual = 0.0153944, Final residual = 6.47512e-06, No Iterations 2
smoothSolver:  Solving for Uz, Initial residual = 0.0118693, Final residual = 4.59559e-06, No Iterations 2
GAMG:  Solving for p, Initial residual = 0.117884, Final residual = 0.0104194, No Iterations 1
GAMG:  Solving for p, Initial residual = 0.0406843, Final residual = 0.00198059, No Iterations 2
GAMG:  Solving for p, Initial residual = 0.0300963, Final residual = 0.00220186, No Iterations 1
GAMG:  Solving for p, Initial residual = 0.0119008, Final residual = 0.000542823, No Iterations 2
GAMG:  Solving for p, Initial residual = 0.00927514, Final residual = 0.000721497, No Iterations 1
time step continuity errors : sum local = 0.027627, global = -0.00307115, cumulative = -0.576999
ExecutionTime = 5.96 s  ClockTime = 6 s

Time = 52

smoothSolver:  Solving for Ux, Initial residual = 0.0146461, Final residual = 6.12577e-06, No Iterations 2
smoothSolver:  Solving for Uy, Initial residual = 0.0151915, Final residual = 6.38313e-06, No Iterations 2
smoothSolver:  Solving for Uz, Initial residual = 0.0114616, Final residual = 4.42762e-06, No Iterations 2
GAMG:  Solving for p, Initial residual = 0.116036, Final residual = 0.00955572, No Iterations 1
GAMG:  Solving for p, Initial residual = 0.0448253, Final residual = 0.00234507, No Iterations 2
GAMG:  Solving for p, Initial residual = 0.0316633, Final residual = 0.00210741, No Iterations 1
GAMG:  Solving for p, Initial residual = 0.0115037, Final residual = 0.000552365, No Iterations 2
GAMG:  Solving for p, Initial residual = 0.010068, Final residual = 0.000711696, No Iterations 1
time step continuity errors : sum local = 0.0295109, global = -0.00741604, cumulative = -0.584415
ExecutionTime = 6.06 s  ClockTime = 6 s

Time = 53

smoothSolver:  Solving for Ux, Initial residual = 0.014489, Final residual = 6.01481e-06, No Iterations 2
smoothSolver:  Solving for Uy, Initial residual = 0.0149883, Final residual = 6.29834e-06, No Iterations 2
smoothSolver:  Solving for Uz, Initial residual = 0.0110154, Final residual = 4.27043e-06, No Iterations 2
GAMG:  Solving for p, Initial residual = 0.116739, Final residual = 0.00957853, No Iterations 1
GAMG:  Solving for p, Initial residual = 0.0447684, Final residual = 0.0024172, No Iterations 2
GAMG:  Solving for p, Initial residual = 0.0303194, Final residual = 0.00205263, No Iterations 1
GAMG:  Solving for p, Initial residual = 0.0111801, Final residual = 0.000586061, No Iterations 2
GAMG:  Solving for p, Initial residual = 0.0106408, Final residual = 0.000761919, No Iterations 1
time step continuity errors : sum local = 0.0339483, global = -0.0102101, cumulative = -0.594625
ExecutionTime = 6.17 s  ClockTime = 6 s

Time = 54

smoothSolver:  Solving for Ux, Initial residual = 0.0143211, Final residual = 5.92923e-06, No Iterations 2
smoothSolver:  Solving for Uy, Initial residual = 0.0147759, Final residual = 6.20724e-06, No Iterations 2
smoothSolver:  Solving for Uz, Initial residual = 0.0106705, Final residual = 4.15887e-06, No Iterations 2
GAMG:  Solving for p, Initial residual = 0.119625, Final residual = 0.00935169, No Iterations 1
GAMG:  Solving for p, Initial residual = 0.0392676, Final residual = 0.00209209, No Iterations 2
GAMG:  Solving for p, Initial residual = 0.0284715, Final residual = 0.00199142, No Iterations 1
GAMG:  Solving for p, Initial residual = 0.0107382, Final residual = 0.000585689, No Iterations 2
GAMG:  Solving for p, Initial residual = 0.0104159, Final residual = 0.000767357, No Iterations 1
time step continuity errors : sum local = 0.0347934, global = -0.0113691, cumulative = -0.605994
ExecutionTime = 6.28 s  ClockTime = 6 s

Time = 55

smoothSolver:  Solving for Ux, Initial residual = 0.0141319, Final residual = 5.83855e-06, No Iterations 2
smoothSolver:  Solving for Uy, Initial residual = 0.014548, Final residual = 6.1168e-06, No Iterations 2
smoothSolver:  Solving for Uz, Initial residual = 0.0104602, Final residual = 4.08367e-06, No Iterations 2
GAMG:  Solving for p, Initial residual = 0.116748, Final residual = 0.00886665, No Iterations 1
GAMG:  Solving for p, Initial residual = 0.0339974, Final residual = 0.00171466, No Iterations 2
GAMG:  Solving for p, Initial residual = 0.024947, Final residual = 0.00182022, No Iterations 1
GAMG:  Solving for p, Initial residual = 0.00984664, Final residual = 0.000549095, No Iterations 2
GAMG:  Solving for p, Initial residual = 0.00945658, Final residual = 0.00072444, No Iterations 1
time step continuity errors : sum local = 0.0318544, global = -0.0110262, cumulative = -0.61702
ExecutionTime = 6.39 s  ClockTime = 6 s

Time = 56

smoothSolver:  Solving for Ux, Initial residual = 0.0139225, Final residual = 5.74735e-06, No Iterations 2
smoothSolver:  Solving for Uy, Initial residual = 0.0143021, Final residual = 6.01095e-06, No Iterations 2
smoothSolver:  Solving for Uz, Initial residual = 0.0103266, Final residual = 4.01274e-06, No Iterations 2
GAMG:  Solving for p, Initial residual = 0.109811, Final residual = 0.00863361, No Iterations 1
GAMG:  Solving for p, Initial residual = 0.0310304, Final residual = 0.00134088, No Iterations 2
GAMG:  Solving for p, Initial residual = 0.0193197, Final residual = 0.0015263, No Iterations 1
GAMG:  Solving for p, Initial residual = 0.00831231, Final residual = 0.000467698, No Iterations 2
GAMG:  Solving for p, Initial residual = 0.00773869, Final residual = 0.000624152, No Iterations 1
time step continuity errors : sum local = 0.0257233, global = -0.00881007, cumulative = -0.62583
ExecutionTime = 6.49 s  ClockTime = 6 s

Time = 57

smoothSolver:  Solving for Ux, Initial residual = 0.0137018, Final residual = 5.63924e-06, No Iterations 2
smoothSolver:  Solving for Uy, Initial residual = 0.0140434, Final residual = 5.89344e-06, No Iterations 2
smoothSolver:  Solving for Uz, Initial residual = 0.0101915, Final residual = 3.93232e-06, No Iterations 2
GAMG:  Solving for p, Initial residual = 0.105347, Final residual = 0.00802667, No Iterations 1
GAMG:  Solving for p, Initial residual = 0.0294807, Final residual = 0.00116138, No Iterations 2
GAMG:  Solving for p, Initial residual = 0.0163389, Final residual = 0.00141127, No Iterations 1
GAMG:  Solving for p, Initial residual = 0.00729356, Final residual = 0.000328365, No Iterations 2
GAMG:  Solving for p, Initial residual = 0.00534699, Final residual = 0.000492477, No Iterations 1
time step continuity errors : sum local = 0.0188765, global = -0.00280316, cumulative = -0.628633
ExecutionTime = 6.6 s  ClockTime = 6 s

Time = 58

smoothSolver:  Solving for Ux, Initial residual = 0.0134916, Final residual = 5.54276e-06, No Iterations 2
smoothSolver:  Solving for Uy, Initial residual = 0.0138065, Final residual = 5.77505e-06, No Iterations 2
smoothSolver:  Solving for Uz, Initial residual = 0.0100342, Final residual = 3.8639e-06, No Iterations 2
GAMG:  Solving for p, Initial residual = 0.102483, Final residual = 0.00718043, No Iterations 1
GAMG:  Solving for p, Initial residual = 0.0284588, Final residual = 0.00122396, No Iterations 2
GAMG:  Solving for p, Initial residual = 0.0182306, Final residual = 0.00128883, No Iterations 1
GAMG:  Solving for p, Initial residual = 0.00710463, Final residual = 0.00031976, No Iterations 2
GAMG:  Solving for p, Initial residual = 0.00539448, Final residual = 0.00040385, No Iterations 1
time step continuity errors : sum local = 0.0143729, global = 0.00180717, cumulative = -0.626826
ExecutionTime = 6.71 s  ClockTime = 6 s

Time = 59

smoothSolver:  Solving for Ux, Initial residual = 0.0133014, Final residual = 5.43736e-06, No Iterations 2
smoothSolver:  Solving for Uy, Initial residual = 0.0135886, Final residual = 5.65874e-06, No Iterations 2
smoothSolver:  Solving for Uz, Initial residual = 0.00985275, Final residual = 3.78261e-06, No Iterations 2
GAMG:  Solving for p, Initial residual = 0.101177, Final residual = 0.00662635, No Iterations 1
GAMG:  Solving for p, Initial residual = 0.0283952, Final residual = 0.00128015, No Iterations 2
GAMG:  Solving for p, Initial residual = 0.0197272, Final residual = 0.00130833, No Iterations 1
GAMG:  Solving for p, Initial residual = 0.00719617, Final residual = 0.000333434, No Iterations 2
GAMG:  Solving for p, Initial residual = 0.00606074, Final residual = 0.00042898, No Iterations 1
time step continuity errors : sum local = 0.0159117, global = 0.0040437, cumulative = -0.622783
ExecutionTime = 6.81 s  ClockTime = 6 s

Time = 60

smoothSolver:  Solving for Ux, Initial residual = 0.013125, Final residual = 5.35207e-06, No Iterations 2
smoothSolver:  Solving for Uy, Initial residual = 0.0134137, Final residual = 5.58629e-06, No Iterations 2
smoothSolver:  Solving for Uz, Initial residual = 0.00967853, Final residual = 3.71416e-06, No Iterations 2
GAMG:  Solving for p, Initial residual = 0.101085, Final residual = 0.00649808, No Iterations 1
GAMG:  Solving for p, Initial residual = 0.0281786, Final residual = 0.00128789, No Iterations 2
GAMG:  Solving for p, Initial residual = 0.0194744, Final residual = 0.00131053, No Iterations 1
GAMG:  Solving for p, Initial residual = 0.00717287, Final residual = 0.000353285, No Iterations 2
GAMG:  Solving for p, Initial residual = 0.006438, Final residual = 0.000464758, No Iterations 1
time step continuity errors : sum local = 0.0178196, global = 0.00539111, cumulative = -0.617391
ExecutionTime = 6.92 s  ClockTime = 7 s

Time = 61

smoothSolver:  Solving for Ux, Initial residual = 0.0129679, Final residual = 5.28739e-06, No Iterations 2
smoothSolver:  Solving for Uy, Initial residual = 0.0132733, Final residual = 5.49871e-06, No Iterations 2
smoothSolver:  Solving for Uz, Initial residual = 0.00952965, Final residual = 3.63526e-06, No Iterations 2
GAMG:  Solving for p, Initial residual = 0.101274, Final residual = 0.00651013, No Iterations 1
GAMG:  Solving for p, Initial residual = 0.0267281, Final residual = 0.00118888, No Iterations 2
GAMG:  Solving for p, Initial residual = 0.0179236, Final residual = 0.0012526, No Iterations 1
GAMG:  Solving for p, Initial residual = 0.00685594, Final residual = 0.000353223, No Iterations 2
GAMG:  Solving for p, Initial residual = 0.00630851, Final residual = 0.000467846, No Iterations 1
time step continuity errors : sum local = 0.0180211, global = 0.00589055, cumulative = -0.611501
ExecutionTime = 7.03 s  ClockTime = 7 s

Time = 62

smoothSolver:  Solving for Ux, Initial residual = 0.0128189, Final residual = 5.20144e-06, No Iterations 2
smoothSolver:  Solving for Uy, Initial residual = 0.0131577, Final residual = 5.42199e-06, No Iterations 2
smoothSolver:  Solving for Uz, Initial residual = 0.00940366, Final residual = 3.57726e-06, No Iterations 2
GAMG:  Solving for p, Initial residual = 0.099284, Final residual = 0.00653488, No Iterations 1
GAMG:  Solving for p, Initial residual = 0.0252945, Final residual = 0.00105237, No Iterations 2
GAMG:  Solving for p, Initial residual = 0.0151227, Final residual = 0.00111215, No Iterations 1
GAMG:  Solving for p, Initial residual = 0.00607318, Final residual = 0.000324661, No Iterations 2
GAMG:  Solving for p, Initial residual = 0.00563342, Final residual = 0.000431792, No Iterations 1
time step continuity errors : sum local = 0.0163143, global = 0.005423, cumulative = -0.606078
ExecutionTime = 7.14 s  ClockTime = 7 s

Time = 63

smoothSolver:  Solving for Ux, Initial residual = 0.0126768, Final residual = 5.1442e-06, No Iterations 2
smoothSolver:  Solving for Uy, Initial residual = 0.0130513, Final residual = 5.36005e-06, No Iterations 2
smoothSolver:  Solving for Uz, Initial residual = 0.00929078, Final residual = 3.5194e-06, No Iterations 2
GAMG:  Solving for p, Initial residual = 0.095883, Final residual = 0.00635178, No Iterations 1
GAMG:  Solving for p, Initial residual = 0.0242286, Final residual = 0.000854241, No Iterations 2
GAMG:  Solving for p, Initial residual = 0.0121327, Final residual = 0.000955861, No Iterations 1
GAMG:  Solving for p, Initial residual = 0.00522258, Final residual = 0.000267259, No Iterations 2
GAMG:  Solving for p, Initial residual = 0.0044216, Final residual = 0.000357639, No Iterations 1
time step continuity errors : sum local = 0.0130352, global = 0.0041721, cumulative = -0.601906
ExecutionTime = 7.25 s  ClockTime = 7 s

Time = 64

smoothSolver:  Solving for Ux, Initial residual = 0.0125432, Final residual = 5.06142e-06, No Iterations 2
smoothSolver:  Solving for Uy, Initial residual = 0.0129473, Final residual = 5.30481e-06, No Iterations 2
smoothSolver:  Solving for Uz, Initial residual = 0.00917117, Final residual = 3.45295e-06, No Iterations 2
GAMG:  Solving for p, Initial residual = 0.0932667, Final residual = 0.00595364, No Iterations 1
GAMG:  Solving for p, Initial residual = 0.0234069, Final residual = 0.00234062, No Iterations 1
GAMG:  Solving for p, Initial residual = 0.00973156, Final residual = 0.000412495, No Iterations 2
GAMG:  Solving for p, Initial residual = 0.00630036, Final residual = 0.000528255, No Iterations 1
GAMG:  Solving for p, Initial residual = 0.00290911, Final residual = 0.000122236, No Iterations 2
time step continuity errors : sum local = 0.00430151, global = -0.000710339, cumulative = -0.602616
ExecutionTime = 7.36 s  ClockTime = 7 s

Time = 65

smoothSolver:  Solving for Ux, Initial residual = 0.0124268, Final residual = 5.01545e-06, No Iterations 2
smoothSolver:  Solving for Uy, Initial residual = 0.0128437, Final residual = 5.24285e-06, No Iterations 2
smoothSolver:  Solving for Uz, Initial residual = 0.00904667, Final residual = 3.39575e-06, No Iterations 2
GAMG:  Solving for p, Initial residual = 0.0913229, Final residual = 0.00552197, No Iterations 1
GAMG:  Solving for p, Initial residual = 0.0226971, Final residual = 0.00201353, No Iterations 1
GAMG:  Solving for p, Initial residual = 0.00965027, Final residual = 0.000404593, No Iterations 2
GAMG:  Solving for p, Initial residual = 0.00673423, Final residual = 0.000458238, No Iterations 1
GAMG:  Solving for p, Initial residual = 0.00275294, Final residual = 0.000119587, No Iterations 2
time step continuity errors : sum local = 0.00410607, global = -0.000345879, cumulative = -0.602962
ExecutionTime = 7.46 s  ClockTime = 7 s

Time = 66

smoothSolver:  Solving for Ux, Initial residual = 0.0123114, Final residual = 4.93952e-06, No Iterations 2
smoothSolver:  Solving for Uy, Initial residual = 0.0127301, Final residual = 5.18242e-06, No Iterations 2
smoothSolver:  Solving for Uz, Initial residual = 0.00890625, Final residual = 3.33197e-06, No Iterations 2
GAMG:  Solving for p, Initial residual = 0.0901992, Final residual = 0.00519329, No Iterations 1
GAMG:  Solving for p, Initial residual = 0.0222352, Final residual = 0.00199784, No Iterations 1
GAMG:  Solving for p, Initial residual = 0.0100795, Final residual = 0.000447114, No Iterations 2
GAMG:  Solving for p, Initial residual = 0.00713923, Final residual = 0.000473299, No Iterations 1
GAMG:  Solving for p, Initial residual = 0.00283625, Final residual = 0.000132395, No Iterations 2
time step continuity errors : sum local = 0.00460436, global = -0.000567358, cumulative = -0.603529
ExecutionTime = 7.58 s  ClockTime = 7 s

Time = 67

smoothSolver:  Solving for Ux, Initial residual = 0.0121941, Final residual = 4.88777e-06, No Iterations 2
smoothSolver:  Solving for Uy, Initial residual = 0.0126191, Final residual = 5.14182e-06, No Iterations 2
smoothSolver:  Solving for Uz, Initial residual = 0.00876436, Final residual = 3.2701e-06, No Iterations 2
GAMG:  Solving for p, Initial residual = 0.0895592, Final residual = 0.00501595, No Iterations 1
GAMG:  Solving for p, Initial residual = 0.0218338, Final residual = 0.00199138, No Iterations 1
GAMG:  Solving for p, Initial residual = 0.0100079, Final residual = 0.000463402, No Iterations 2
GAMG:  Solving for p, Initial residual = 0.00723866, Final residual = 0.000493665, No Iterations 1
GAMG:  Solving for p, Initial residual = 0.00290758, Final residual = 0.00014459, No Iterations 2
time step continuity errors : sum local = 0.00508257, global = -0.000699434, cumulative = -0.604229
ExecutionTime = 7.68 s  ClockTime = 7 s

Time = 68

smoothSolver:  Solving for Ux, Initial residual = 0.0120708, Final residual = 4.81119e-06, No Iterations 2
smoothSolver:  Solving for Uy, Initial residual = 0.0124996, Final residual = 5.0598e-06, No Iterations 2
smoothSolver:  Solving for Uz, Initial residual = 0.00863401, Final residual = 3.20899e-06, No Iterations 2
GAMG:  Solving for p, Initial residual = 0.0884274, Final residual = 0.00494756, No Iterations 1
GAMG:  Solving for p, Initial residual = 0.0213445, Final residual = 0.00188444, No Iterations 1
GAMG:  Solving for p, Initial residual = 0.00928929, Final residual = 0.000434926, No Iterations 2
GAMG:  Solving for p, Initial residual = 0.00688187, Final residual = 0.000485339, No Iterations 1
GAMG:  Solving for p, Initial residual = 0.00283078, Final residual = 0.000146292, No Iterations 2
time step continuity errors : sum local = 0.00514064, global = -0.000642591, cumulative = -0.604871
ExecutionTime = 7.79 s  ClockTime = 7 s

Time = 69

smoothSolver:  Solving for Ux, Initial residual = 0.0119459, Final residual = 4.76082e-06, No Iterations 2
smoothSolver:  Solving for Uy, Initial residual = 0.0123777, Final residual = 5.00342e-06, No Iterations 2
smoothSolver:  Solving for Uz, Initial residual = 0.00851429, Final residual = 3.16287e-06, No Iterations 2
GAMG:  Solving for p, Initial residual = 0.0866257, Final residual = 0.00485956, No Iterations 1
GAMG:  Solving for p, Initial residual = 0.0208193, Final residual = 0.00181143, No Iterations 1
GAMG:  Solving for p, Initial residual = 0.0083915, Final residual = 0.000379991, No Iterations 2
GAMG:  Solving for p, Initial residual = 0.00603867, Final residual = 0.000443881, No Iterations 1
GAMG:  Solving for p, Initial residual = 0.00258889, Final residual = 0.000136005, No Iterations 2
time step continuity errors : sum local = 0.00473241, global = -0.000488204, cumulative = -0.60536
ExecutionTime = 7.9 s  ClockTime = 8 s

Time = 70

smoothSolver:  Solving for Ux, Initial residual = 0.011813, Final residual = 4.70005e-06, No Iterations 2
smoothSolver:  Solving for Uy, Initial residual = 0.0122472, Final residual = 4.92681e-06, No Iterations 2
smoothSolver:  Solving for Uz, Initial residual = 0.00840364, Final residual = 3.11658e-06, No Iterations 2
GAMG:  Solving for p, Initial residual = 0.0847676, Final residual = 0.00474279, No Iterations 1
GAMG:  Solving for p, Initial residual = 0.020347, Final residual = 0.00181799, No Iterations 1
GAMG:  Solving for p, Initial residual = 0.00783003, Final residual = 0.000312541, No Iterations 2
GAMG:  Solving for p, Initial residual = 0.00491908, Final residual = 0.000388351, No Iterations 1
GAMG:  Solving for p, Initial residual = 0.0022673, Final residual = 0.00011212, No Iterations 2
time step continuity errors : sum local = 0.00384337, global = -0.000320987, cumulative = -0.605681
ExecutionTime = 8 s  ClockTime = 8 s

Time = 71

smoothSolver:  Solving for Ux, Initial residual = 0.0116772, Final residual = 4.64368e-06, No Iterations 2
smoothSolver:  Solving for Uy, Initial residual = 0.0121161, Final residual = 4.87185e-06, No Iterations 2
smoothSolver:  Solving for Uz, Initial residual = 0.00830357, Final residual = 3.08326e-06, No Iterations 2
GAMG:  Solving for p, Initial residual = 0.0831968, Final residual = 0.00459449, No Iterations 1
GAMG:  Solving for p, Initial residual = 0.0198671, Final residual = 0.00175811, No Iterations 1
GAMG:  Solving for p, Initial residual = 0.00754486, Final residual = 0.000291997, No Iterations 2
GAMG:  Solving for p, Initial residual = 0.00438475, Final residual = 0.000366518, No Iterations 1
GAMG:  Solving for p, Initial residual = 0.00203369, Final residual = 8.53506e-05, No Iterations 2
time step continuity errors : sum local = 0.00289282, global = 9.93436e-05, cumulative = -0.605581
ExecutionTime = 8.11 s  ClockTime = 8 s

Time = 72

smoothSolver:  Solving for Ux, Initial residual = 0.0115439, Final residual = 4.58299e-06, No Iterations 2
smoothSolver:  Solving for Uy, Initial residual = 0.0119884, Final residual = 4.7976e-06, No Iterations 2
smoothSolver:  Solving for Uz, Initial residual = 0.00821014, Final residual = 3.04969e-06, No Iterations 2
GAMG:  Solving for p, Initial residual = 0.08167, Final residual = 0.00444586, No Iterations 1
GAMG:  Solving for p, Initial residual = 0.0194005, Final residual = 0.00164366, No Iterations 1
GAMG:  Solving for p, Initial residual = 0.00730336, Final residual = 0.000275975, No Iterations 2
GAMG:  Solving for p, Initial residual = 0.00439063, Final residual = 0.000318559, No Iterations 1
GAMG:  Solving for p, Initial residual = 0.0018743, Final residual = 7.88627e-05, No Iterations 2
time step continuity errors : sum local = 0.00264041, global = 0.000246305, cumulative = -0.605335
ExecutionTime = 8.21 s  ClockTime = 8 s

Time = 73

smoothSolver:  Solving for Ux, Initial residual = 0.0114104, Final residual = 4.55027e-06, No Iterations 2
smoothSolver:  Solving for Uy, Initial residual = 0.0118679, Final residual = 4.74847e-06, No Iterations 2
smoothSolver:  Solving for Uz, Initial residual = 0.00812544, Final residual = 3.01561e-06, No Iterations 2
GAMG:  Solving for p, Initial residual = 0.0803115, Final residual = 0.00432297, No Iterations 1
GAMG:  Solving for p, Initial residual = 0.0189989, Final residual = 0.00154133, No Iterations 1
GAMG:  Solving for p, Initial residual = 0.00710692, Final residual = 0.000282444, No Iterations 2
GAMG:  Solving for p, Initial residual = 0.00454287, Final residual = 0.000310629, No Iterations 1
GAMG:  Solving for p, Initial residual = 0.00183899, Final residual = 8.1637e-05, No Iterations 2
time step continuity errors : sum local = 0.00271481, global = 0.000240567, cumulative = -0.605094
ExecutionTime = 8.32 s  ClockTime = 8 s

Time = 74

smoothSolver:  Solving for Ux, Initial residual = 0.0112847, Final residual = 4.49485e-06, No Iterations 2
smoothSolver:  Solving for Uy, Initial residual = 0.0117589, Final residual = 4.67498e-06, No Iterations 2
smoothSolver:  Solving for Uz, Initial residual = 0.00804517, Final residual = 2.98602e-06, No Iterations 2
GAMG:  Solving for p, Initial residual = 0.0793531, Final residual = 0.00424823, No Iterations 1
GAMG:  Solving for p, Initial residual = 0.0186679, Final residual = 0.00150594, No Iterations 1
GAMG:  Solving for p, Initial residual = 0.00693331, Final residual = 0.000279924, No Iterations 2
GAMG:  Solving for p, Initial residual = 0.0045312, Final residual = 0.000312473, No Iterations 1
GAMG:  Solving for p, Initial residual = 0.00183494, Final residual = 8.44361e-05, No Iterations 2
time step continuity errors : sum local = 0.00279951, global = 0.000268506, cumulative = -0.604826
ExecutionTime = 8.42 s  ClockTime = 8 s

Time = 75

smoothSolver:  Solving for Ux, Initial residual = 0.011168, Final residual = 4.45362e-06, No Iterations 2
smoothSolver:  Solving for Uy, Initial residual = 0.0116633, Final residual = 4.64561e-06, No Iterations 2
smoothSolver:  Solving for Uz, Initial residual = 0.0079659, Final residual = 2.95193e-06, No Iterations 2
GAMG:  Solving for p, Initial residual = 0.0785276, Final residual = 0.00419526, No Iterations 1
GAMG:  Solving for p, Initial residual = 0.0184279, Final residual = 0.00150171, No Iterations 1
GAMG:  Solving for p, Initial residual = 0.00675303, Final residual = 0.000266678, No Iterations 2
GAMG:  Solving for p, Initial residual = 0.00426832, Final residual = 0.000302561, No Iterations 1
GAMG:  Solving for p, Initial residual = 0.00177793, Final residual = 8.32215e-05, No Iterations 2
time step continuity errors : sum local = 0.00274949, global = 0.000249066, cumulative = -0.604577
ExecutionTime = 8.53 s  ClockTime = 8 s

Time = 76

smoothSolver:  Solving for Ux, Initial residual = 0.011062, Final residual = 4.39524e-06, No Iterations 2
smoothSolver:  Solving for Uy, Initial residual = 0.0115705, Final residual = 4.60294e-06, No Iterations 2
smoothSolver:  Solving for Uz, Initial residual = 0.00788636, Final residual = 2.90839e-06, No Iterations 2
GAMG:  Solving for p, Initial residual = 0.0775542, Final residual = 0.00413868, No Iterations 1
GAMG:  Solving for p, Initial residual = 0.0181976, Final residual = 0.00150998, No Iterations 1
GAMG:  Solving for p, Initial residual = 0.0065881, Final residual = 0.000238061, No Iterations 2
GAMG:  Solving for p, Initial residual = 0.0037629, Final residual = 0.000280929, No Iterations 1
GAMG:  Solving for p, Initial residual = 0.00165408, Final residual = 7.67584e-05, No Iterations 2
time step continuity errors : sum local = 0.00252613, global = 0.000188656, cumulative = -0.604388
ExecutionTime = 8.64 s  ClockTime = 8 s

Time = 77

smoothSolver:  Solving for Ux, Initial residual = 0.0109606, Final residual = 4.35843e-06, No Iterations 2
smoothSolver:  Solving for Uy, Initial residual = 0.0114743, Final residual = 4.56473e-06, No Iterations 2
smoothSolver:  Solving for Uz, Initial residual = 0.00780406, Final residual = 2.87377e-06, No Iterations 2
GAMG:  Solving for p, Initial residual = 0.0766328, Final residual = 0.00405305, No Iterations 1
GAMG:  Solving for p, Initial residual = 0.0179312, Final residual = 0.00147797, No Iterations 1
GAMG:  Solving for p, Initial residual = 0.00646258, Final residual = 0.00021427, No Iterations 2
GAMG:  Solving for p, Initial residual = 0.00338914, Final residual = 0.000269534, No Iterations 1
GAMG:  Solving for p, Initial residual = 0.0015553, Final residual = 6.19004e-05, No Iterations 2
time step continuity errors : sum local = 0.00203015, global = 0.00013926, cumulative = -0.604249
ExecutionTime = 8.75 s  ClockTime = 8 s

Time = 78

smoothSolver:  Solving for Ux, Initial residual = 0.0108711, Final residual = 4.31043e-06, No Iterations 2
smoothSolver:  Solving for Uy, Initial residual = 0.011378, Final residual = 4.51339e-06, No Iterations 2
smoothSolver:  Solving for Uz, Initial residual = 0.00772386, Final residual = 2.85066e-06, No Iterations 2
GAMG:  Solving for p, Initial residual = 0.075443, Final residual = 0.00394887, No Iterations 1
GAMG:  Solving for p, Initial residual = 0.0176502, Final residual = 0.00142623, No Iterations 1
GAMG:  Solving for p, Initial residual = 0.00633611, Final residual = 0.000193763, No Iterations 2
GAMG:  Solving for p, Initial residual = 0.00336277, Final residual = 0.000247806, No Iterations 1
GAMG:  Solving for p, Initial residual = 0.00152086, Final residual = 5.9471e-05, No Iterations 2
time step continuity errors : sum local = 0.0019458, global = -0.000279144, cumulative = -0.604528
ExecutionTime = 8.85 s  ClockTime = 8 s

Time = 79

smoothSolver:  Solving for Ux, Initial residual = 0.0107782, Final residual = 4.28949e-06, No Iterations 2
smoothSolver:  Solving for Uy, Initial residual = 0.0112836, Final residual = 4.48169e-06, No Iterations 2
smoothSolver:  Solving for Uz, Initial residual = 0.00764487, Final residual = 2.81852e-06, No Iterations 2
GAMG:  Solving for p, Initial residual = 0.0743355, Final residual = 0.00385463, No Iterations 1
GAMG:  Solving for p, Initial residual = 0.0173574, Final residual = 0.00136898, No Iterations 1
GAMG:  Solving for p, Initial residual = 0.00621993, Final residual = 0.000596138, No Iterations 1
GAMG:  Solving for p, Initial residual = 0.0030531, Final residual = 0.000133961, No Iterations 2
GAMG:  Solving for p, Initial residual = 0.00220767, Final residual = 0.00015675, No Iterations 1
time step continuity errors : sum local = 0.0051349, global = -0.00113151, cumulative = -0.60566
ExecutionTime = 8.96 s  ClockTime = 9 s

Time = 80

smoothSolver:  Solving for Ux, Initial residual = 0.0106906, Final residual = 4.23746e-06, No Iterations 2
smoothSolver:  Solving for Uy, Initial residual = 0.0111825, Final residual = 4.41521e-06, No Iterations 2
smoothSolver:  Solving for Uz, Initial residual = 0.00756545, Final residual = 2.78611e-06, No Iterations 2
GAMG:  Solving for p, Initial residual = 0.073235, Final residual = 0.00377994, No Iterations 1
GAMG:  Solving for p, Initial residual = 0.0170722, Final residual = 0.00132777, No Iterations 1
GAMG:  Solving for p, Initial residual = 0.00613125, Final residual = 0.000593944, No Iterations 1
GAMG:  Solving for p, Initial residual = 0.00314879, Final residual = 0.000145037, No Iterations 2
GAMG:  Solving for p, Initial residual = 0.00237269, Final residual = 0.000167912, No Iterations 1
time step continuity errors : sum local = 0.00550916, global = -0.00147572, cumulative = -0.607135
ExecutionTime = 9.05 s  ClockTime = 9 s

Time = 81

smoothSolver:  Solving for Ux, Initial residual = 0.0106063, Final residual = 4.19935e-06, No Iterations 2
smoothSolver:  Solving for Uy, Initial residual = 0.0110808, Final residual = 4.37065e-06, No Iterations 2
smoothSolver:  Solving for Uz, Initial residual = 0.0074874, Final residual = 2.75956e-06, No Iterations 2
GAMG:  Solving for p, Initial residual = 0.072164, Final residual = 0.00373749, No Iterations 1
GAMG:  Solving for p, Initial residual = 0.0167731, Final residual = 0.00131445, No Iterations 1
GAMG:  Solving for p, Initial residual = 0.00604471, Final residual = 0.000599865, No Iterations 1
GAMG:  Solving for p, Initial residual = 0.00317977, Final residual = 0.000150994, No Iterations 2
GAMG:  Solving for p, Initial residual = 0.00245053, Final residual = 0.000177074, No Iterations 1
time step continuity errors : sum local = 0.00581281, global = -0.00169786, cumulative = -0.608833
ExecutionTime = 9.16 s  ClockTime = 9 s

Time = 82

smoothSolver:  Solving for Ux, Initial residual = 0.0105125, Final residual = 4.15364e-06, No Iterations 2
smoothSolver:  Solving for Uy, Initial residual = 0.010974, Final residual = 4.31482e-06, No Iterations 2
smoothSolver:  Solving for Uz, Initial residual = 0.00741454, Final residual = 2.72734e-06, No Iterations 2
GAMG:  Solving for p, Initial residual = 0.0709539, Final residual = 0.00368534, No Iterations 1
GAMG:  Solving for p, Initial residual = 0.0164624, Final residual = 0.00130231, No Iterations 1
GAMG:  Solving for p, Initial residual = 0.00593386, Final residual = 0.000592814, No Iterations 1
GAMG:  Solving for p, Initial residual = 0.00311415, Final residual = 0.00014984, No Iterations 2
GAMG:  Solving for p, Initial residual = 0.00242277, Final residual = 0.000178914, No Iterations 1
time step continuity errors : sum local = 0.00586548, global = -0.00178618, cumulative = -0.610619
ExecutionTime = 9.26 s  ClockTime = 9 s

Time = 83

smoothSolver:  Solving for Ux, Initial residual = 0.0104188, Final residual = 4.08828e-06, No Iterations 2
smoothSolver:  Solving for Uy, Initial residual = 0.0108666, Final residual = 4.26585e-06, No Iterations 2
[...]
GAMG:  Solving for p, Initial residual = 5.69084e-05, Final residual = 5.22039e-06, No Iterations 1
time step continuity errors : sum local = 0.000133944, global = -1.8543e-05, cumulative = -0.604616
ExecutionTime = 215.23 s  ClockTime = 215 s

Time = 1981

smoothSolver:  Solving for Ux, Initial residual = 6.76516e-05, Final residual = 4.37941e-08, No Iterations 2
smoothSolver:  Solving for Uy, Initial residual = 5.93997e-05, Final residual = 4.42776e-08, No Iterations 2
smoothSolver:  Solving for Uz, Initial residual = 2.34652e-05, Final residual = 1.47651e-08, No Iterations 2
GAMG:  Solving for p, Initial residual = 0.000916383, Final residual = 8.1881e-05, No Iterations 1
GAMG:  Solving for p, Initial residual = 0.000359796, Final residual = 1.28072e-05, No Iterations 2
GAMG:  Solving for p, Initial residual = 0.000163758, Final residual = 1.42406e-05, No Iterations 1
GAMG:  Solving for p, Initial residual = 7.82186e-05, Final residual = 4.13514e-06, No Iterations 2
GAMG:  Solving for p, Initial residual = 5.44155e-05, Final residual = 5.02507e-06, No Iterations 1
time step continuity errors : sum local = 0.000128921, global = -2.33728e-05, cumulative = -0.604639
ExecutionTime = 215.34 s  ClockTime = 215 s

Time = 1982

smoothSolver:  Solving for Ux, Initial residual = 6.58627e-05, Final residual = 4.17404e-08, No Iterations 2
smoothSolver:  Solving for Uy, Initial residual = 6.07153e-05, Final residual = 3.98657e-08, No Iterations 2
smoothSolver:  Solving for Uz, Initial residual = 2.3445e-05, Final residual = 1.49561e-08, No Iterations 2
GAMG:  Solving for p, Initial residual = 0.000866409, Final residual = 7.86445e-05, No Iterations 1
GAMG:  Solving for p, Initial residual = 0.00033492, Final residual = 1.23538e-05, No Iterations 2
GAMG:  Solving for p, Initial residual = 0.000160045, Final residual = 1.41295e-05, No Iterations 1
GAMG:  Solving for p, Initial residual = 7.6949e-05, Final residual = 4.12724e-06, No Iterations 2
GAMG:  Solving for p, Initial residual = 5.4615e-05, Final residual = 4.95947e-06, No Iterations 1
time step continuity errors : sum local = 0.000127235, global = -2.48051e-05, cumulative = -0.604664
ExecutionTime = 215.44 s  ClockTime = 215 s

Time = 1983

smoothSolver:  Solving for Ux, Initial residual = 6.46955e-05, Final residual = 4.26848e-08, No Iterations 2
smoothSolver:  Solving for Uy, Initial residual = 6.15105e-05, Final residual = 4.26559e-08, No Iterations 2
smoothSolver:  Solving for Uz, Initial residual = 2.23697e-05, Final residual = 1.47959e-08, No Iterations 2
GAMG:  Solving for p, Initial residual = 0.000901988, Final residual = 8.03611e-05, No Iterations 1
GAMG:  Solving for p, Initial residual = 0.00034667, Final residual = 1.22728e-05, No Iterations 2
GAMG:  Solving for p, Initial residual = 0.000166271, Final residual = 1.43541e-05, No Iterations 1
GAMG:  Solving for p, Initial residual = 7.84859e-05, Final residual = 4.11605e-06, No Iterations 2
GAMG:  Solving for p, Initial residual = 5.57283e-05, Final residual = 4.89626e-06, No Iterations 1
time step continuity errors : sum local = 0.00012561, global = -2.54637e-05, cumulative = -0.604689
ExecutionTime = 215.55 s  ClockTime = 215 s

Time = 1984

smoothSolver:  Solving for Ux, Initial residual = 6.55093e-05, Final residual = 4.25727e-08, No Iterations 2
smoothSolver:  Solving for Uy, Initial residual = 6.37873e-05, Final residual = 4.5941e-08, No Iterations 2
smoothSolver:  Solving for Uz, Initial residual = 2.22627e-05, Final residual = 1.44899e-08, No Iterations 2
GAMG:  Solving for p, Initial residual = 0.000945231, Final residual = 8.07183e-05, No Iterations 1
GAMG:  Solving for p, Initial residual = 0.000351115, Final residual = 1.21539e-05, No Iterations 2
GAMG:  Solving for p, Initial residual = 0.000165726, Final residual = 1.40604e-05, No Iterations 1
GAMG:  Solving for p, Initial residual = 7.64292e-05, Final residual = 3.95104e-06, No Iterations 2
GAMG:  Solving for p, Initial residual = 5.39302e-05, Final residual = 4.69681e-06, No Iterations 1
time step continuity errors : sum local = 0.000120499, global = -2.71563e-05, cumulative = -0.604716
ExecutionTime = 215.66 s  ClockTime = 215 s

Time = 1985

smoothSolver:  Solving for Ux, Initial residual = 6.30684e-05, Final residual = 4.08409e-08, No Iterations 2
smoothSolver:  Solving for Uy, Initial residual = 6.24444e-05, Final residual = 4.37061e-08, No Iterations 2
smoothSolver:  Solving for Uz, Initial residual = 2.19747e-05, Final residual = 1.39853e-08, No Iterations 2
GAMG:  Solving for p, Initial residual = 0.000956421, Final residual = 7.88212e-05, No Iterations 1
GAMG:  Solving for p, Initial residual = 0.000353087, Final residual = 1.21525e-05, No Iterations 2
GAMG:  Solving for p, Initial residual = 0.000168829, Final residual = 1.42967e-05, No Iterations 1
GAMG:  Solving for p, Initial residual = 7.8846e-05, Final residual = 3.74243e-06, No Iterations 2
GAMG:  Solving for p, Initial residual = 5.39705e-05, Final residual = 4.74096e-06, No Iterations 1
time step continuity errors : sum local = 0.000121623, global = -2.6138e-05, cumulative = -0.604743
ExecutionTime = 215.76 s  ClockTime = 215 s

Time = 1986

smoothSolver:  Solving for Ux, Initial residual = 6.37341e-05, Final residual = 4.27108e-08, No Iterations 2
smoothSolver:  Solving for Uy, Initial residual = 6.18152e-05, Final residual = 4.50329e-08, No Iterations 2
smoothSolver:  Solving for Uz, Initial residual = 2.19876e-05, Final residual = 1.41333e-08, No Iterations 2
GAMG:  Solving for p, Initial residual = 0.000997181, Final residual = 8.57693e-05, No Iterations 1
GAMG:  Solving for p, Initial residual = 0.000380954, Final residual = 1.33767e-05, No Iterations 2
GAMG:  Solving for p, Initial residual = 0.000177386, Final residual = 1.50031e-05, No Iterations 1
GAMG:  Solving for p, Initial residual = 8.26354e-05, Final residual = 3.79071e-06, No Iterations 2
GAMG:  Solving for p, Initial residual = 5.49757e-05, Final residual = 4.87856e-06, No Iterations 1
time step continuity errors : sum local = 0.000125151, global = -2.33765e-05, cumulative = -0.604766
ExecutionTime = 215.87 s  ClockTime = 216 s

Time = 1987

smoothSolver:  Solving for Ux, Initial residual = 6.2735e-05, Final residual = 4.30825e-08, No Iterations 2
smoothSolver:  Solving for Uy, Initial residual = 6.05591e-05, Final residual = 4.36513e-08, No Iterations 2
smoothSolver:  Solving for Uz, Initial residual = 2.31231e-05, Final residual = 1.49239e-08, No Iterations 2
GAMG:  Solving for p, Initial residual = 0.000960211, Final residual = 8.26189e-05, No Iterations 1
GAMG:  Solving for p, Initial residual = 0.0003631, Final residual = 3.60722e-05, No Iterations 1
GAMG:  Solving for p, Initial residual = 0.000154257, Final residual = 7.13281e-06, No Iterations 2
GAMG:  Solving for p, Initial residual = 9.12085e-05, Final residual = 8.11476e-06, No Iterations 1
GAMG:  Solving for p, Initial residual = 4.61107e-05, Final residual = 2.36903e-06, No Iterations 2
time step continuity errors : sum local = 6.07813e-05, global = -9.52013e-06, cumulative = -0.604775
ExecutionTime = 215.97 s  ClockTime = 216 s

Time = 1988

smoothSolver:  Solving for Ux, Initial residual = 6.67512e-05, Final residual = 4.45699e-08, No Iterations 2
smoothSolver:  Solving for Uy, Initial residual = 6.08091e-05, Final residual = 4.00908e-08, No Iterations 2
smoothSolver:  Solving for Uz, Initial residual = 2.37543e-05, Final residual = 1.47485e-08, No Iterations 2
GAMG:  Solving for p, Initial residual = 0.000940421, Final residual = 8.08603e-05, No Iterations 1
GAMG:  Solving for p, Initial residual = 0.000352131, Final residual = 3.5027e-05, No Iterations 1
GAMG:  Solving for p, Initial residual = 0.000150093, Final residual = 7.02883e-06, No Iterations 2
GAMG:  Solving for p, Initial residual = 8.83958e-05, Final residual = 7.9786e-06, No Iterations 1
GAMG:  Solving for p, Initial residual = 4.55408e-05, Final residual = 2.39744e-06, No Iterations 2
time step continuity errors : sum local = 6.15074e-05, global = 1.6898e-06, cumulative = -0.604774
ExecutionTime = 216.09 s  ClockTime = 216 s

Time = 1989

smoothSolver:  Solving for Ux, Initial residual = 6.65721e-05, Final residual = 4.62935e-08, No Iterations 2
smoothSolver:  Solving for Uy, Initial residual = 6.03758e-05, Final residual = 3.94174e-08, No Iterations 2
smoothSolver:  Solving for Uz, Initial residual = 2.38974e-05, Final residual = 1.50828e-08, No Iterations 2
GAMG:  Solving for p, Initial residual = 0.000922063, Final residual = 8.14154e-05, No Iterations 1
GAMG:  Solving for p, Initial residual = 0.000352505, Final residual = 1.25945e-05, No Iterations 2
GAMG:  Solving for p, Initial residual = 0.000164422, Final residual = 1.3909e-05, No Iterations 1
GAMG:  Solving for p, Initial residual = 7.77011e-05, Final residual = 3.93594e-06, No Iterations 2
GAMG:  Solving for p, Initial residual = 5.28995e-05, Final residual = 4.88864e-06, No Iterations 1
time step continuity errors : sum local = 0.00012543, global = 1.23659e-05, cumulative = -0.604761
ExecutionTime = 216.18 s  ClockTime = 216 s

Time = 1990

smoothSolver:  Solving for Ux, Initial residual = 6.70662e-05, Final residual = 4.71868e-08, No Iterations 2
smoothSolver:  Solving for Uy, Initial residual = 6.08808e-05, Final residual = 3.90525e-08, No Iterations 2
smoothSolver:  Solving for Uz, Initial residual = 2.3813e-05, Final residual = 1.4953e-08, No Iterations 2
GAMG:  Solving for p, Initial residual = 0.000904282, Final residual = 7.90762e-05, No Iterations 1
GAMG:  Solving for p, Initial residual = 0.000351479, Final residual = 3.48092e-05, No Iterations 1
GAMG:  Solving for p, Initial residual = 0.000151572, Final residual = 7.96764e-06, No Iterations 2
GAMG:  Solving for p, Initial residual = 9.30921e-05, Final residual = 8.80807e-06, No Iterations 1
GAMG:  Solving for p, Initial residual = 4.77928e-05, Final residual = 2.94998e-06, No Iterations 2
time step continuity errors : sum local = 7.56867e-05, global = 1.40914e-05, cumulative = -0.604747
ExecutionTime = 216.3 s  ClockTime = 216 s

Time = 1991

smoothSolver:  Solving for Ux, Initial residual = 6.88187e-05, Final residual = 4.53715e-08, No Iterations 2
smoothSolver:  Solving for Uy, Initial residual = 6.34849e-05, Final residual = 4.31837e-08, No Iterations 2
smoothSolver:  Solving for Uz, Initial residual = 2.32882e-05, Final residual = 1.46758e-08, No Iterations 2
GAMG:  Solving for p, Initial residual = 0.000955541, Final residual = 8.44927e-05, No Iterations 1
GAMG:  Solving for p, Initial residual = 0.000380279, Final residual = 3.79341e-05, No Iterations 1
GAMG:  Solving for p, Initial residual = 0.000162976, Final residual = 8.84654e-06, No Iterations 2
GAMG:  Solving for p, Initial residual = 0.000102352, Final residual = 9.70397e-06, No Iterations 1
GAMG:  Solving for p, Initial residual = 5.1545e-05, Final residual = 3.13526e-06, No Iterations 2
time step continuity errors : sum local = 8.04423e-05, global = 1.51548e-05, cumulative = -0.604732
ExecutionTime = 216.4 s  ClockTime = 216 s

Time = 1992

smoothSolver:  Solving for Ux, Initial residual = 6.77584e-05, Final residual = 4.46347e-08, No Iterations 2
smoothSolver:  Solving for Uy, Initial residual = 6.52442e-05, Final residual = 5.00454e-08, No Iterations 2
smoothSolver:  Solving for Uz, Initial residual = 2.26556e-05, Final residual = 1.52794e-08, No Iterations 2
GAMG:  Solving for p, Initial residual = 0.00100091, Final residual = 8.94769e-05, No Iterations 1
GAMG:  Solving for p, Initial residual = 0.000401375, Final residual = 1.45418e-05, No Iterations 2
GAMG:  Solving for p, Initial residual = 0.000189533, Final residual = 1.65636e-05, No Iterations 1
GAMG:  Solving for p, Initial residual = 8.95523e-05, Final residual = 4.57969e-06, No Iterations 2
GAMG:  Solving for p, Initial residual = 6.01084e-05, Final residual = 5.57241e-06, No Iterations 1
time step continuity errors : sum local = 0.000142959, global = 2.40766e-05, cumulative = -0.604708
ExecutionTime = 216.52 s  ClockTime = 216 s

Time = 1993

smoothSolver:  Solving for Ux, Initial residual = 6.49437e-05, Final residual = 4.27575e-08, No Iterations 2
smoothSolver:  Solving for Uy, Initial residual = 6.49362e-05, Final residual = 5.27835e-08, No Iterations 2
smoothSolver:  Solving for Uz, Initial residual = 2.28729e-05, Final residual = 1.62646e-08, No Iterations 2
GAMG:  Solving for p, Initial residual = 0.000992535, Final residual = 8.41102e-05, No Iterations 1
GAMG:  Solving for p, Initial residual = 0.000380462, Final residual = 1.34506e-05, No Iterations 2
GAMG:  Solving for p, Initial residual = 0.000179887, Final residual = 1.55301e-05, No Iterations 1
GAMG:  Solving for p, Initial residual = 8.4978e-05, Final residual = 4.24031e-06, No Iterations 2
GAMG:  Solving for p, Initial residual = 5.71631e-05, Final residual = 5.25502e-06, No Iterations 1
time step continuity errors : sum local = 0.000134826, global = 2.8066e-05, cumulative = -0.60468
ExecutionTime = 216.62 s  ClockTime = 216 s

Time = 1994

smoothSolver:  Solving for Ux, Initial residual = 6.38461e-05, Final residual = 4.28701e-08, No Iterations 2
smoothSolver:  Solving for Uy, Initial residual = 6.21422e-05, Final residual = 5.02234e-08, No Iterations 2
smoothSolver:  Solving for Uz, Initial residual = 2.30049e-05, Final residual = 1.62031e-08, No Iterations 2
GAMG:  Solving for p, Initial residual = 0.00100029, Final residual = 8.43874e-05, No Iterations 1
GAMG:  Solving for p, Initial residual = 0.000375041, Final residual = 1.30493e-05, No Iterations 2
GAMG:  Solving for p, Initial residual = 0.000177199, Final residual = 1.50754e-05, No Iterations 1
GAMG:  Solving for p, Initial residual = 8.36235e-05, Final residual = 3.98202e-06, No Iterations 2
GAMG:  Solving for p, Initial residual = 5.6662e-05, Final residual = 5.08521e-06, No Iterations 1
time step continuity errors : sum local = 0.000130484, global = 2.66199e-05, cumulative = -0.604653
ExecutionTime = 216.73 s  ClockTime = 216 s

Time = 1995

smoothSolver:  Solving for Ux, Initial residual = 6.62784e-05, Final residual = 4.39912e-08, No Iterations 2
smoothSolver:  Solving for Uy, Initial residual = 6.11834e-05, Final residual = 4.40845e-08, No Iterations 2
smoothSolver:  Solving for Uz, Initial residual = 2.35232e-05, Final residual = 1.57911e-08, No Iterations 2
GAMG:  Solving for p, Initial residual = 0.00097791, Final residual = 8.20041e-05, No Iterations 1
GAMG:  Solving for p, Initial residual = 0.000354191, Final residual = 1.22915e-05, No Iterations 2
GAMG:  Solving for p, Initial residual = 0.000167617, Final residual = 1.42117e-05, No Iterations 1
GAMG:  Solving for p, Initial residual = 7.81959e-05, Final residual = 3.67914e-06, No Iterations 2
GAMG:  Solving for p, Initial residual = 5.36676e-05, Final residual = 4.71564e-06, No Iterations 1
time step continuity errors : sum local = 0.000121002, global = 2.41342e-05, cumulative = -0.604629
ExecutionTime = 216.83 s  ClockTime = 217 s

Time = 1996

smoothSolver:  Solving for Ux, Initial residual = 6.45075e-05, Final residual = 4.41835e-08, No Iterations 2
smoothSolver:  Solving for Uy, Initial residual = 6.14894e-05, Final residual = 4.02348e-08, No Iterations 2
smoothSolver:  Solving for Uz, Initial residual = 2.37291e-05, Final residual = 1.55708e-08, No Iterations 2
GAMG:  Solving for p, Initial residual = 0.000939573, Final residual = 7.96696e-05, No Iterations 1
GAMG:  Solving for p, Initial residual = 0.000341142, Final residual = 1.19508e-05, No Iterations 2
GAMG:  Solving for p, Initial residual = 0.000159513, Final residual = 1.3319e-05, No Iterations 1
GAMG:  Solving for p, Initial residual = 7.35962e-05, Final residual = 3.41964e-06, No Iterations 2
GAMG:  Solving for p, Initial residual = 4.95255e-05, Final residual = 4.36795e-06, No Iterations 1
time step continuity errors : sum local = 0.000112079, global = 1.62654e-05, cumulative = -0.604613
ExecutionTime = 216.95 s  ClockTime = 217 s

Time = 1997

smoothSolver:  Solving for Ux, Initial residual = 6.55796e-05, Final residual = 4.64543e-08, No Iterations 2
smoothSolver:  Solving for Uy, Initial residual = 6.29779e-05, Final residual = 4.19587e-08, No Iterations 2
smoothSolver:  Solving for Uz, Initial residual = 2.37734e-05, Final residual = 1.4771e-08, No Iterations 2
GAMG:  Solving for p, Initial residual = 0.000939036, Final residual = 8.4872e-05, No Iterations 1
GAMG:  Solving for p, Initial residual = 0.00035984, Final residual = 1.31011e-05, No Iterations 2
GAMG:  Solving for p, Initial residual = 0.000167042, Final residual = 1.42113e-05, No Iterations 1
GAMG:  Solving for p, Initial residual = 7.70294e-05, Final residual = 3.76088e-06, No Iterations 2
GAMG:  Solving for p, Initial residual = 5.15602e-05, Final residual = 4.65694e-06, No Iterations 1
time step continuity errors : sum local = 0.000119494, global = 5.21554e-06, cumulative = -0.604608
ExecutionTime = 217.05 s  ClockTime = 217 s

Time = 1998

smoothSolver:  Solving for Ux, Initial residual = 6.56032e-05, Final residual = 4.5403e-08, No Iterations 2
smoothSolver:  Solving for Uy, Initial residual = 6.257e-05, Final residual = 4.19534e-08, No Iterations 2
smoothSolver:  Solving for Uz, Initial residual = 2.35456e-05, Final residual = 1.42658e-08, No Iterations 2
GAMG:  Solving for p, Initial residual = 0.000934743, Final residual = 8.4686e-05, No Iterations 1
GAMG:  Solving for p, Initial residual = 0.00036776, Final residual = 1.32718e-05, No Iterations 2
GAMG:  Solving for p, Initial residual = 0.000171002, Final residual = 1.46985e-05, No Iterations 1
GAMG:  Solving for p, Initial residual = 7.96005e-05, Final residual = 4.02967e-06, No Iterations 2
GAMG:  Solving for p, Initial residual = 5.32594e-05, Final residual = 4.9141e-06, No Iterations 1
time step continuity errors : sum local = 0.000126085, global = 5.00866e-07, cumulative = -0.604607
ExecutionTime = 217.16 s  ClockTime = 217 s

Time = 1999

smoothSolver:  Solving for Ux, Initial residual = 6.38004e-05, Final residual = 4.41045e-08, No Iterations 2
smoothSolver:  Solving for Uy, Initial residual = 6.01193e-05, Final residual = 4.05897e-08, No Iterations 2
smoothSolver:  Solving for Uz, Initial residual = 2.3019e-05, Final residual = 1.39091e-08, No Iterations 2
GAMG:  Solving for p, Initial residual = 0.000907984, Final residual = 7.98144e-05, No Iterations 1
GAMG:  Solving for p, Initial residual = 0.000351613, Final residual = 1.27911e-05, No Iterations 2
GAMG:  Solving for p, Initial residual = 0.000164367, Final residual = 1.4389e-05, No Iterations 1
GAMG:  Solving for p, Initial residual = 7.76376e-05, Final residual = 4.15617e-06, No Iterations 2
GAMG:  Solving for p, Initial residual = 5.2881e-05, Final residual = 4.98729e-06, No Iterations 1
time step continuity errors : sum local = 0.000127973, global = 3.05018e-07, cumulative = -0.604607
ExecutionTime = 217.26 s  ClockTime = 217 s

Time = 2000

smoothSolver:  Solving for Ux, Initial residual = 6.20268e-05, Final residual = 4.39048e-08, No Iterations 2
smoothSolver:  Solving for Uy, Initial residual = 5.71714e-05, Final residual = 3.90072e-08, No Iterations 2
smoothSolver:  Solving for Uz, Initial residual = 2.26674e-05, Final residual = 1.42961e-08, No Iterations 2
GAMG:  Solving for p, Initial residual = 0.000892641, Final residual = 7.96432e-05, No Iterations 1
GAMG:  Solving for p, Initial residual = 0.000353662, Final residual = 1.31913e-05, No Iterations 2
GAMG:  Solving for p, Initial residual = 0.000165959, Final residual = 1.47509e-05, No Iterations 1
GAMG:  Solving for p, Initial residual = 8.01083e-05, Final residual = 4.30888e-06, No Iterations 2
GAMG:  Solving for p, Initial residual = 5.51336e-05, Final residual = 5.16031e-06, No Iterations 1
time step continuity errors : sum local = 0.000132413, global = -4.49196e-06, cumulative = -0.604611
ExecutionTime = 217.54 s  ClockTime = 217 s

End

