/*---------------------------------------------------------------------------*\
| =========                 |                                                 |
| \\      /  F ield         | OpenFOAM: The Open Source CFD Toolbox           |
|  \\    /   O peration     | Version:  2506                                  |
|   \\  /    A nd           | Website:  www.openfoam.com                      |
|    \\/     M anipulation  |                                                 |
\*---------------------------------------------------------------------------*/
Build  : _615aae61-20250627 OPENFOAM=2506 version=2506
Arch   : "LSB;label=32;scalar=64"
Exec   : simpleFoam -noFunctionObjects -case /home/ubuntu/fan_CFD_dataset/cases/fan_10
Date   : Nov 07 2025
Time   : 14:41:14
Host   : ip-172-31-37-87
PID    : 168489
I/O    : uncollated
Case   : /home/ubuntu/fan_CFD_dataset/cases/fan_10
nProcs : 1
trapFpe: Floating point exception trapping enabled (FOAM_SIGFPE).
fileModificationChecking : Monitoring run-time modified files using timeStampMaster (fileModificationSkew 5, maxFileModificationPolls 20)
allowSystemOperations : Allowing user-supplied system call operations

// * * * * * * * * * * * * * * * * * * * * * * * * * * * * * * * * * * * * * //
Create time

Create mesh for time = 0


SIMPLE: convergence criteria
    field U	 tolerance 1e-05
    field p	 tolerance 0.0001

Reading field p

Reading field U

Reading/calculating face flux field phi

Selecting incompressible transport model Newtonian
Selecting turbulence model type laminar
Selecting laminar stress model Stokes
No MRF models present

No finite volume options present

Starting time loop

Time = 1

smoothSolver:  Solving for Ux, Initial residual = 1, Final residual = 0.000328439, No Iterations 2
smoothSolver:  Solving for Uy, Initial residual = 1, Final residual = 0.000340216, No Iterations 2
smoothSolver:  Solving for Uz, Initial residual = 1, Final residual = 0.000771994, No Iterations 2
GAMG:  Solving for p, Initial residual = 1, Final residual = 0.0440912, No Iterations 4
GAMG:  Solving for p, Initial residual = 0.194319, Final residual = 0.013009, No Iterations 1
GAMG:  Solving for p, Initial residual = 0.050422, Final residual = 0.00213728, No Iterations 2
GAMG:  Solving for p, Initial residual = 0.0362853, Final residual = 0.00258379, No Iterations 1
GAMG:  Solving for p, Initial residual = 0.0146396, Final residual = 0.000714677, No Iterations 2
time step continuity errors : sum local = 4.89122, global = -0.835807, cumulative = -0.835807
ExecutionTime = 0.23 s  ClockTime = 1 s

Time = 2

smoothSolver:  Solving for Ux, Initial residual = 0.0814514, Final residual = 3.14559e-05, No Iterations 2
smoothSolver:  Solving for Uy, Initial residual = 0.0770671, Final residual = 3.00466e-05, No Iterations 2
smoothSolver:  Solving for Uz, Initial residual = 0.165118, Final residual = 5.00341e-05, No Iterations 2
GAMG:  Solving for p, Initial residual = 0.600314, Final residual = 0.0346202, No Iterations 4
GAMG:  Solving for p, Initial residual = 0.148226, Final residual = 0.0100869, No Iterations 1
GAMG:  Solving for p, Initial residual = 0.0455285, Final residual = 0.00206934, No Iterations 2
GAMG:  Solving for p, Initial residual = 0.0345464, Final residual = 0.00258118, No Iterations 1
GAMG:  Solving for p, Initial residual = 0.0158167, Final residual = 0.000825259, No Iterations 2
time step continuity errors : sum local = 6.42758, global = -0.645302, cumulative = -1.48111
ExecutionTime = 0.31 s  ClockTime = 1 s

Time = 3

smoothSolver:  Solving for Ux, Initial residual = 0.20433, Final residual = 9.39318e-05, No Iterations 2
smoothSolver:  Solving for Uy, Initial residual = 0.194283, Final residual = 9.20859e-05, No Iterations 2
smoothSolver:  Solving for Uz, Initial residual = 0.472839, Final residual = 0.000173083, No Iterations 2
GAMG:  Solving for p, Initial residual = 0.121163, Final residual = 0.00833756, No Iterations 3
GAMG:  Solving for p, Initial residual = 0.109601, Final residual = 0.00749263, No Iterations 1
GAMG:  Solving for p, Initial residual = 0.0337072, Final residual = 0.00155807, No Iterations 2
GAMG:  Solving for p, Initial residual = 0.027489, Final residual = 0.00203093, No Iterations 1
GAMG:  Solving for p, Initial residual = 0.0120565, Final residual = 0.00061286, No Iterations 2
time step continuity errors : sum local = 3.13593, global = -0.373324, cumulative = -1.85443
ExecutionTime = 0.38 s  ClockTime = 1 s

Time = 4

smoothSolver:  Solving for Ux, Initial residual = 0.178984, Final residual = 8.09948e-05, No Iterations 2
smoothSolver:  Solving for Uy, Initial residual = 0.175585, Final residual = 7.92322e-05, No Iterations 2
smoothSolver:  Solving for Uz, Initial residual = 0.532599, Final residual = 0.000200905, No Iterations 2
GAMG:  Solving for p, Initial residual = 0.0631117, Final residual = 0.00533568, No Iterations 1
GAMG:  Solving for p, Initial residual = 0.0258076, Final residual = 0.00133861, No Iterations 2
GAMG:  Solving for p, Initial residual = 0.0219962, Final residual = 0.00165867, No Iterations 1
GAMG:  Solving for p, Initial residual = 0.00998964, Final residual = 0.000537333, No Iterations 2
GAMG:  Solving for p, Initial residual = 0.00951844, Final residual = 0.000773752, No Iterations 1
time step continuity errors : sum local = 2.52988, global = -0.952647, cumulative = -2.80708
ExecutionTime = 0.46 s  ClockTime = 1 s

Time = 5

smoothSolver:  Solving for Ux, Initial residual = 0.131852, Final residual = 5.61392e-05, No Iterations 2
smoothSolver:  Solving for Uy, Initial residual = 0.131917, Final residual = 5.57463e-05, No Iterations 2
smoothSolver:  Solving for Uz, Initial residual = 0.489223, Final residual = 0.000177687, No Iterations 2
GAMG:  Solving for p, Initial residual = 0.063648, Final residual = 0.00451172, No Iterations 2
GAMG:  Solving for p, Initial residual = 0.0923566, Final residual = 0.0069302, No Iterations 1
GAMG:  Solving for p, Initial residual = 0.0515327, Final residual = 0.00277302, No Iterations 2
GAMG:  Solving for p, Initial residual = 0.0609775, Final residual = 0.0042673, No Iterations 1
GAMG:  Solving for p, Initial residual = 0.0278345, Final residual = 0.00138375, No Iterations 2
time step continuity errors : sum local = 1.45287, global = 0.333546, cumulative = -2.47353
ExecutionTime = 0.53 s  ClockTime = 1 s

Time = 6

smoothSolver:  Solving for Ux, Initial residual = 0.0893572, Final residual = 3.72244e-05, No Iterations 2
smoothSolver:  Solving for Uy, Initial residual = 0.0900838, Final residual = 3.69274e-05, No Iterations 2
smoothSolver:  Solving for Uz, Initial residual = 0.379999, Final residual = 0.000138696, No Iterations 2
GAMG:  Solving for p, Initial residual = 0.0788882, Final residual = 0.00656856, No Iterations 3
GAMG:  Solving for p, Initial residual = 0.304664, Final residual = 0.0207923, No Iterations 1
GAMG:  Solving for p, Initial residual = 0.118801, Final residual = 0.00578508, No Iterations 2
GAMG:  Solving for p, Initial residual = 0.0879242, Final residual = 0.0063964, No Iterations 1
GAMG:  Solving for p, Initial residual = 0.0382772, Final residual = 0.00196422, No Iterations 2
time step continuity errors : sum local = 2.94595, global = 0.305586, cumulative = -2.16795
ExecutionTime = 0.61 s  ClockTime = 1 s

Time = 7

smoothSolver:  Solving for Ux, Initial residual = 0.0592482, Final residual = 2.68339e-05, No Iterations 2
smoothSolver:  Solving for Uy, Initial residual = 0.0595036, Final residual = 2.59621e-05, No Iterations 2
smoothSolver:  Solving for Uz, Initial residual = 0.233465, Final residual = 9.10271e-05, No Iterations 2
GAMG:  Solving for p, Initial residual = 0.110505, Final residual = 0.0104293, No Iterations 3
GAMG:  Solving for p, Initial residual = 0.240644, Final residual = 0.0165969, No Iterations 1
GAMG:  Solving for p, Initial residual = 0.0833412, Final residual = 0.00410967, No Iterations 2
GAMG:  Solving for p, Initial residual = 0.0632589, Final residual = 0.00470081, No Iterations 1
GAMG:  Solving for p, Initial residual = 0.0275575, Final residual = 0.00145975, No Iterations 2
time step continuity errors : sum local = 3.7466, global = 0.359956, cumulative = -1.80799
ExecutionTime = 0.69 s  ClockTime = 1 s

Time = 8

smoothSolver:  Solving for Ux, Initial residual = 0.0480522, Final residual = 2.4161e-05, No Iterations 2
smoothSolver:  Solving for Uy, Initial residual = 0.0463028, Final residual = 2.29734e-05, No Iterations 2
smoothSolver:  Solving for Uz, Initial residual = 0.10177, Final residual = 4.95156e-05, No Iterations 2
GAMG:  Solving for p, Initial residual = 0.220471, Final residual = 0.0179805, No Iterations 3
GAMG:  Solving for p, Initial residual = 0.191512, Final residual = 0.013268, No Iterations 1
GAMG:  Solving for p, Initial residual = 0.0622732, Final residual = 0.0031038, No Iterations 2
GAMG:  Solving for p, Initial residual = 0.0490785, Final residual = 0.00370907, No Iterations 1
GAMG:  Solving for p, Initial residual = 0.0217606, Final residual = 0.00119246, No Iterations 2
time step continuity errors : sum local = 3.61002, global = 0.339487, cumulative = -1.4685
ExecutionTime = 0.76 s  ClockTime = 1 s

Time = 9

smoothSolver:  Solving for Ux, Initial residual = 0.0570072, Final residual = 2.90976e-05, No Iterations 2
smoothSolver:  Solving for Uy, Initial residual = 0.0531226, Final residual = 2.74062e-05, No Iterations 2
smoothSolver:  Solving for Uz, Initial residual = 0.0943875, Final residual = 4.57918e-05, No Iterations 2
GAMG:  Solving for p, Initial residual = 0.276859, Final residual = 0.0222127, No Iterations 2
GAMG:  Solving for p, Initial residual = 0.13931, Final residual = 0.010033, No Iterations 1
GAMG:  Solving for p, Initial residual = 0.0528083, Final residual = 0.00277279, No Iterations 2
GAMG:  Solving for p, Initial residual = 0.0417657, Final residual = 0.00320838, No Iterations 1
GAMG:  Solving for p, Initial residual = 0.0188025, Final residual = 0.00105854, No Iterations 2
time step continuity errors : sum local = 2.95878, global = 0.300668, cumulative = -1.16784
ExecutionTime = 0.83 s  ClockTime = 1 s

Time = 10

smoothSolver:  Solving for Ux, Initial residual = 0.070218, Final residual = 3.50277e-05, No Iterations 2
smoothSolver:  Solving for Uy, Initial residual = 0.0657609, Final residual = 3.36652e-05, No Iterations 2
smoothSolver:  Solving for Uz, Initial residual = 0.193222, Final residual = 7.78988e-05, No Iterations 2
GAMG:  Solving for p, Initial residual = 0.17329, Final residual = 0.00810519, No Iterations 2
GAMG:  Solving for p, Initial residual = 0.0853907, Final residual = 0.00647191, No Iterations 1
GAMG:  Solving for p, Initial residual = 0.0353527, Final residual = 0.00191409, No Iterations 2
GAMG:  Solving for p, Initial residual = 0.0311236, Final residual = 0.0024851, No Iterations 1
GAMG:  Solving for p, Initial residual = 0.0149698, Final residual = 0.000881942, No Iterations 2
time step continuity errors : sum local = 1.82256, global = 0.126759, cumulative = -1.04108
ExecutionTime = 0.9 s  ClockTime = 1 s

Time = 11

smoothSolver:  Solving for Ux, Initial residual = 0.0763026, Final residual = 3.73554e-05, No Iterations 2
smoothSolver:  Solving for Uy, Initial residual = 0.0732253, Final residual = 3.68714e-05, No Iterations 2
smoothSolver:  Solving for Uz, Initial residual = 0.272986, Final residual = 0.000102054, No Iterations 2
GAMG:  Solving for p, Initial residual = 0.139049, Final residual = 0.0119546, No Iterations 1
GAMG:  Solving for p, Initial residual = 0.0548833, Final residual = 0.00220712, No Iterations 2
GAMG:  Solving for p, Initial residual = 0.0359494, Final residual = 0.00288924, No Iterations 1
GAMG:  Solving for p, Initial residual = 0.0172654, Final residual = 0.000757812, No Iterations 2
GAMG:  Solving for p, Initial residual = 0.0129192, Final residual = 0.00119681, No Iterations 1
time step continuity errors : sum local = 1.42754, global = 0.118855, cumulative = -0.922224
ExecutionTime = 0.97 s  ClockTime = 1 s

Time = 12

smoothSolver:  Solving for Ux, Initial residual = 0.0743648, Final residual = 3.72963e-05, No Iterations 2
smoothSolver:  Solving for Uy, Initial residual = 0.0725979, Final residual = 3.7301e-05, No Iterations 2
smoothSolver:  Solving for Uz, Initial residual = 0.294945, Final residual = 0.000108434, No Iterations 2
GAMG:  Solving for p, Initial residual = 0.130214, Final residual = 0.0068961, No Iterations 2
GAMG:  Solving for p, Initial residual = 0.17407, Final residual = 0.0127609, No Iterations 1
GAMG:  Solving for p, Initial residual = 0.101132, Final residual = 0.00526693, No Iterations 2
GAMG:  Solving for p, Initial residual = 0.0961626, Final residual = 0.00661534, No Iterations 1
GAMG:  Solving for p, Initial residual = 0.0404536, Final residual = 0.00189653, No Iterations 2
time step continuity errors : sum local = 0.932492, global = -0.217972, cumulative = -1.1402
ExecutionTime = 1.05 s  ClockTime = 1 s

Time = 13

smoothSolver:  Solving for Ux, Initial residual = 0.0664049, Final residual = 3.47874e-05, No Iterations 2
smoothSolver:  Solving for Uy, Initial residual = 0.064451, Final residual = 3.37298e-05, No Iterations 2
smoothSolver:  Solving for Uz, Initial residual = 0.243572, Final residual = 9.19353e-05, No Iterations 2
GAMG:  Solving for p, Initial residual = 0.140083, Final residual = 0.0107889, No Iterations 2
GAMG:  Solving for p, Initial residual = 0.257394, Final residual = 0.0194354, No Iterations 1
GAMG:  Solving for p, Initial residual = 0.103071, Final residual = 0.00544533, No Iterations 2
GAMG:  Solving for p, Initial residual = 0.0721579, Final residual = 0.00513979, No Iterations 1
GAMG:  Solving for p, Initial residual = 0.0301185, Final residual = 0.00151757, No Iterations 2
time step continuity errors : sum local = 1.53666, global = -0.293217, cumulative = -1.43341
ExecutionTime = 1.11 s  ClockTime = 1 s

Time = 14

smoothSolver:  Solving for Ux, Initial residual = 0.0587309, Final residual = 3.15164e-05, No Iterations 2
smoothSolver:  Solving for Uy, Initial residual = 0.0549093, Final residual = 2.93955e-05, No Iterations 2
smoothSolver:  Solving for Uz, Initial residual = 0.142285, Final residual = 5.91095e-05, No Iterations 2
GAMG:  Solving for p, Initial residual = 0.181894, Final residual = 0.0168713, No Iterations 2
GAMG:  Solving for p, Initial residual = 0.202673, Final residual = 0.0153159, No Iterations 1
GAMG:  Solving for p, Initial residual = 0.0802742, Final residual = 0.00426511, No Iterations 2
GAMG:  Solving for p, Initial residual = 0.0583349, Final residual = 0.00427039, No Iterations 1
GAMG:  Solving for p, Initial residual = 0.0246038, Final residual = 0.00128944, No Iterations 2
time step continuity errors : sum local = 1.76326, global = -0.280741, cumulative = -1.71415
ExecutionTime = 1.19 s  ClockTime = 2 s

Time = 15

smoothSolver:  Solving for Ux, Initial residual = 0.0553736, Final residual = 2.9262e-05, No Iterations 2
smoothSolver:  Solving for Uy, Initial residual = 0.0498292, Final residual = 2.64265e-05, No Iterations 2
smoothSolver:  Solving for Uz, Initial residual = 0.0702499, Final residual = 3.58639e-05, No Iterations 2
GAMG:  Solving for p, Initial residual = 0.356378, Final residual = 0.0314649, No Iterations 2
GAMG:  Solving for p, Initial residual = 0.158806, Final residual = 0.0119345, No Iterations 1
GAMG:  Solving for p, Initial residual = 0.0621692, Final residual = 0.0033523, No Iterations 2
GAMG:  Solving for p, Initial residual = 0.0478966, Final residual = 0.00362591, No Iterations 1
GAMG:  Solving for p, Initial residual = 0.0208377, Final residual = 0.00114409, No Iterations 2
time step continuity errors : sum local = 1.63653, global = -0.212246, cumulative = -1.9264
ExecutionTime = 1.27 s  ClockTime = 2 s

Time = 16

smoothSolver:  Solving for Ux, Initial residual = 0.0532183, Final residual = 2.70938e-05, No Iterations 2
smoothSolver:  Solving for Uy, Initial residual = 0.0476362, Final residual = 2.45575e-05, No Iterations 2
smoothSolver:  Solving for Uz, Initial residual = 0.101561, Final residual = 4.31068e-05, No Iterations 2
GAMG:  Solving for p, Initial residual = 0.222291, Final residual = 0.013791, No Iterations 2
GAMG:  Solving for p, Initial residual = 0.114524, Final residual = 0.00870454, No Iterations 1
GAMG:  Solving for p, Initial residual = 0.0450242, Final residual = 0.0025489, No Iterations 2
GAMG:  Solving for p, Initial residual = 0.0387517, Final residual = 0.0030818, No Iterations 1
GAMG:  Solving for p, Initial residual = 0.0177727, Final residual = 0.00103863, No Iterations 2
time step continuity errors : sum local = 1.26868, global = -0.117693, cumulative = -2.04409
ExecutionTime = 1.34 s  ClockTime = 2 s

Time = 17

smoothSolver:  Solving for Ux, Initial residual = 0.0478727, Final residual = 2.43592e-05, No Iterations 2
smoothSolver:  Solving for Uy, Initial residual = 0.0439967, Final residual = 2.27294e-05, No Iterations 2
smoothSolver:  Solving for Uz, Initial residual = 0.146458, Final residual = 5.47498e-05, No Iterations 2
GAMG:  Solving for p, Initial residual = 0.158161, Final residual = 0.00656069, No Iterations 2
GAMG:  Solving for p, Initial residual = 0.0762828, Final residual = 0.00642854, No Iterations 1
GAMG:  Solving for p, Initial residual = 0.0342418, Final residual = 0.00203963, No Iterations 2
GAMG:  Solving for p, Initial residual = 0.029747, Final residual = 0.00262275, No Iterations 1
GAMG:  Solving for p, Initial residual = 0.0149664, Final residual = 0.000971435, No Iterations 2
time step continuity errors : sum local = 0.804373, global = -0.0600697, cumulative = -2.10416
ExecutionTime = 1.41 s  ClockTime = 2 s

Time = 18

smoothSolver:  Solving for Ux, Initial residual = 0.0400781, Final residual = 2.09233e-05, No Iterations 2
smoothSolver:  Solving for Uy, Initial residual = 0.0382093, Final residual = 1.99533e-05, No Iterations 2
smoothSolver:  Solving for Uz, Initial residual = 0.154051, Final residual = 5.63855e-05, No Iterations 2
GAMG:  Solving for p, Initial residual = 0.137888, Final residual = 0.005667, No Iterations 2
GAMG:  Solving for p, Initial residual = 0.0980138, Final residual = 0.00733202, No Iterations 1
GAMG:  Solving for p, Initial residual = 0.0405108, Final residual = 0.00196407, No Iterations 2
GAMG:  Solving for p, Initial residual = 0.0331657, Final residual = 0.00270777, No Iterations 1
GAMG:  Solving for p, Initial residual = 0.0161436, Final residual = 0.000791567, No Iterations 2
time step continuity errors : sum local = 0.355346, global = 0.0552313, cumulative = -2.04893
ExecutionTime = 1.47 s  ClockTime = 2 s

Time = 19

smoothSolver:  Solving for Ux, Initial residual = 0.0332151, Final residual = 1.77997e-05, No Iterations 2
smoothSolver:  Solving for Uy, Initial residual = 0.0323609, Final residual = 1.73276e-05, No Iterations 2
smoothSolver:  Solving for Uz, Initial residual = 0.13179, Final residual = 4.82686e-05, No Iterations 2
GAMG:  Solving for p, Initial residual = 0.133916, Final residual = 0.00808278, No Iterations 2
GAMG:  Solving for p, Initial residual = 0.238133, Final residual = 0.0173789, No Iterations 1
GAMG:  Solving for p, Initial residual = 0.110514, Final residual = 0.0058174, No Iterations 2
GAMG:  Solving for p, Initial residual = 0.0757376, Final residual = 0.00526269, No Iterations 1
GAMG:  Solving for p, Initial residual = 0.0311133, Final residual = 0.00147397, No Iterations 2
time step continuity errors : sum local = 0.495752, global = 0.110105, cumulative = -1.93883
ExecutionTime = 1.55 s  ClockTime = 2 s

Time = 20

smoothSolver:  Solving for Ux, Initial residual = 0.0300941, Final residual = 1.62629e-05, No Iterations 2
smoothSolver:  Solving for Uy, Initial residual = 0.0289132, Final residual = 1.55909e-05, No Iterations 2
smoothSolver:  Solving for Uz, Initial residual = 0.0920395, Final residual = 3.51778e-05, No Iterations 2
GAMG:  Solving for p, Initial residual = 0.144898, Final residual = 0.0113201, No Iterations 2
GAMG:  Solving for p, Initial residual = 0.216054, Final residual = 0.0163928, No Iterations 1
GAMG:  Solving for p, Initial residual = 0.0867406, Final residual = 0.00461201, No Iterations 2
GAMG:  Solving for p, Initial residual = 0.0625171, Final residual = 0.00445163, No Iterations 1
GAMG:  Solving for p, Initial residual = 0.0260767, Final residual = 0.00132602, No Iterations 2
time step continuity errors : sum local = 0.715787, global = 0.143921, cumulative = -1.79491
ExecutionTime = 1.62 s  ClockTime = 2 s

Time = 21

smoothSolver:  Solving for Ux, Initial residual = 0.0304373, Final residual = 1.58619e-05, No Iterations 2
smoothSolver:  Solving for Uy, Initial residual = 0.0284176, Final residual = 1.49721e-05, No Iterations 2
smoothSolver:  Solving for Uz, Initial residual = 0.0510738, Final residual = 2.23242e-05, No Iterations 2
GAMG:  Solving for p, Initial residual = 0.189348, Final residual = 0.0163942, No Iterations 2
GAMG:  Solving for p, Initial residual = 0.17382, Final residual = 0.0134428, No Iterations 1
GAMG:  Solving for p, Initial residual = 0.0715627, Final residual = 0.00384909, No Iterations 2
GAMG:  Solving for p, Initial residual = 0.0536039, Final residual = 0.00398273, No Iterations 1
GAMG:  Solving for p, Initial residual = 0.0230825, Final residual = 0.00123433, No Iterations 2
time step continuity errors : sum local = 0.801606, global = 0.128137, cumulative = -1.66677
ExecutionTime = 1.69 s  ClockTime = 2 s

Time = 22

smoothSolver:  Solving for Ux, Initial residual = 0.0316613, Final residual = 1.59001e-05, No Iterations 2
smoothSolver:  Solving for Uy, Initial residual = 0.029527, Final residual = 1.49428e-05, No Iterations 2
smoothSolver:  Solving for Uz, Initial residual = 0.03453, Final residual = 1.72126e-05, No Iterations 2
GAMG:  Solving for p, Initial residual = 0.30927, Final residual = 0.0229408, No Iterations 2
GAMG:  Solving for p, Initial residual = 0.136965, Final residual = 0.0104884, No Iterations 1
GAMG:  Solving for p, Initial residual = 0.0562041, Final residual = 0.00309241, No Iterations 2
GAMG:  Solving for p, Initial residual = 0.0454181, Final residual = 0.00352527, No Iterations 1
GAMG:  Solving for p, Initial residual = 0.0204255, Final residual = 0.00115327, No Iterations 2
time step continuity errors : sum local = 0.738777, global = 0.0859812, cumulative = -1.58079
ExecutionTime = 1.77 s  ClockTime = 2 s

Time = 23

smoothSolver:  Solving for Ux, Initial residual = 0.0317244, Final residual = 1.55118e-05, No Iterations 2
smoothSolver:  Solving for Uy, Initial residual = 0.0301741, Final residual = 1.47592e-05, No Iterations 2
smoothSolver:  Solving for Uz, Initial residual = 0.0461342, Final residual = 2.02403e-05, No Iterations 2
GAMG:  Solving for p, Initial residual = 0.197417, Final residual = 0.0109547, No Iterations 2
GAMG:  Solving for p, Initial residual = 0.101906, Final residual = 0.00839059, No Iterations 1
GAMG:  Solving for p, Initial residual = 0.042855, Final residual = 0.00258202, No Iterations 2
GAMG:  Solving for p, Initial residual = 0.0389468, Final residual = 0.00322599, No Iterations 1
GAMG:  Solving for p, Initial residual = 0.0185549, Final residual = 0.00112899, No Iterations 2
time step continuity errors : sum local = 0.590055, global = 0.0488752, cumulative = -1.53191
ExecutionTime = 1.83 s  ClockTime = 2 s

Time = 24

smoothSolver:  Solving for Ux, Initial residual = 0.0300907, Final residual = 1.44704e-05, No Iterations 2
smoothSolver:  Solving for Uy, Initial residual = 0.0294729, Final residual = 1.42066e-05, No Iterations 2
smoothSolver:  Solving for Uz, Initial residual = 0.0606119, Final residual = 2.33803e-05, No Iterations 2
GAMG:  Solving for p, Initial residual = 0.158531, Final residual = 0.00685436, No Iterations 2
GAMG:  Solving for p, Initial residual = 0.0843066, Final residual = 0.00739912, No Iterations 1
GAMG:  Solving for p, Initial residual = 0.0377043, Final residual = 0.00205356, No Iterations 2
GAMG:  Solving for p, Initial residual = 0.0301092, Final residual = 0.00281803, No Iterations 1
GAMG:  Solving for p, Initial residual = 0.0160737, Final residual = 0.0010408, No Iterations 2
time step continuity errors : sum local = 0.368772, global = 0.0317407, cumulative = -1.50017
ExecutionTime = 1.91 s  ClockTime = 2 s

Time = 25

smoothSolver:  Solving for Ux, Initial residual = 0.0276882, Final residual = 1.3419e-05, No Iterations 2
smoothSolver:  Solving for Uy, Initial residual = 0.0277106, Final residual = 1.33125e-05, No Iterations 2
smoothSolver:  Solving for Uz, Initial residual = 0.0638177, Final residual = 2.37687e-05, No Iterations 2
GAMG:  Solving for p, Initial residual = 0.144018, Final residual = 0.00676996, No Iterations 2
GAMG:  Solving for p, Initial residual = 0.120929, Final residual = 0.00912017, No Iterations 1
GAMG:  Solving for p, Initial residual = 0.0503311, Final residual = 0.00253755, No Iterations 2
GAMG:  Solving for p, Initial residual = 0.0433945, Final residual = 0.00351715, No Iterations 1
GAMG:  Solving for p, Initial residual = 0.0205687, Final residual = 0.00103115, No Iterations 2
time step continuity errors : sum local = 0.205059, global = -0.0362887, cumulative = -1.53646
ExecutionTime = 1.98 s  ClockTime = 2 s

Time = 26

smoothSolver:  Solving for Ux, Initial residual = 0.0257651, Final residual = 1.26224e-05, No Iterations 2
smoothSolver:  Solving for Uy, Initial residual = 0.0257155, Final residual = 1.23856e-05, No Iterations 2
smoothSolver:  Solving for Uz, Initial residual = 0.0554688, Final residual = 2.07862e-05, No Iterations 2
GAMG:  Solving for p, Initial residual = 0.141149, Final residual = 0.00864205, No Iterations 2
GAMG:  Solving for p, Initial residual = 0.20867, Final residual = 0.0155293, No Iterations 1
GAMG:  Solving for p, Initial residual = 0.0793932, Final residual = 0.00425262, No Iterations 2
GAMG:  Solving for p, Initial residual = 0.056591, Final residual = 0.00405387, No Iterations 1
GAMG:  Solving for p, Initial residual = 0.0231528, Final residual = 0.00111803, No Iterations 2
time step continuity errors : sum local = 0.244122, global = -0.0478004, cumulative = -1.58426
ExecutionTime = 2.05 s  ClockTime = 2 s

Time = 27

smoothSolver:  Solving for Ux, Initial residual = 0.0246772, Final residual = 1.20372e-05, No Iterations 2
smoothSolver:  Solving for Uy, Initial residual = 0.0239295, Final residual = 1.15301e-05, No Iterations 2
smoothSolver:  Solving for Uz, Initial residual = 0.0397262, Final residual = 1.59083e-05, No Iterations 2
GAMG:  Solving for p, Initial residual = 0.15262, Final residual = 0.0110776, No Iterations 2
GAMG:  Solving for p, Initial residual = 0.165642, Final residual = 0.0127853, No Iterations 1
GAMG:  Solving for p, Initial residual = 0.0663544, Final residual = 0.00356406, No Iterations 2
GAMG:  Solving for p, Initial residual = 0.0498561, Final residual = 0.00360156, No Iterations 1
GAMG:  Solving for p, Initial residual = 0.0207514, Final residual = 0.00105392, No Iterations 2
time step continuity errors : sum local = 0.313602, global = -0.0642526, cumulative = -1.64851
ExecutionTime = 2.13 s  ClockTime = 2 s

Time = 28

smoothSolver:  Solving for Ux, Initial residual = 0.0238845, Final residual = 1.16148e-05, No Iterations 2
smoothSolver:  Solving for Uy, Initial residual = 0.0225461, Final residual = 1.0942e-05, No Iterations 2
smoothSolver:  Solving for Uz, Initial residual = 0.0270952, Final residual = 1.20572e-05, No Iterations 2
GAMG:  Solving for p, Initial residual = 0.192986, Final residual = 0.0143395, No Iterations 2
GAMG:  Solving for p, Initial residual = 0.133717, Final residual = 0.0104405, No Iterations 1
GAMG:  Solving for p, Initial residual = 0.05574, Final residual = 0.00302374, No Iterations 2
GAMG:  Solving for p, Initial residual = 0.0440159, Final residual = 0.00330411, No Iterations 1
GAMG:  Solving for p, Initial residual = 0.0190261, Final residual = 0.00102283, No Iterations 2
time step continuity errors : sum local = 0.338718, global = -0.0551877, cumulative = -1.7037
ExecutionTime = 2.2 s  ClockTime = 3 s

Time = 29

smoothSolver:  Solving for Ux, Initial residual = 0.0226986, Final residual = 1.10581e-05, No Iterations 2
smoothSolver:  Solving for Uy, Initial residual = 0.0212674, Final residual = 1.05005e-05, No Iterations 2
smoothSolver:  Solving for Uz, Initial residual = 0.0250259, Final residual = 1.14252e-05, No Iterations 2
GAMG:  Solving for p, Initial residual = 0.215082, Final residual = 0.0128697, No Iterations 2
GAMG:  Solving for p, Initial residual = 0.10622, Final residual = 0.00823219, No Iterations 1
GAMG:  Solving for p, Initial residual = 0.0435076, Final residual = 0.00247262, No Iterations 2
GAMG:  Solving for p, Initial residual = 0.038069, Final residual = 0.00299466, No Iterations 1
GAMG:  Solving for p, Initial residual = 0.017252, Final residual = 0.000994967, No Iterations 2
time step continuity errors : sum local = 0.313582, global = -0.0353644, cumulative = -1.73907
ExecutionTime = 2.26 s  ClockTime = 3 s

Time = 30

smoothSolver:  Solving for Ux, Initial residual = 0.02084, Final residual = 1.03408e-05, No Iterations 2
smoothSolver:  Solving for Uy, Initial residual = 0.0198468, Final residual = 9.92691e-06, No Iterations 2
smoothSolver:  Solving for Uz, Initial residual = 0.0296222, Final residual = 1.25211e-05, No Iterations 2
GAMG:  Solving for p, Initial residual = 0.162253, Final residual = 0.007825, No Iterations 2
GAMG:  Solving for p, Initial residual = 0.0832094, Final residual = 0.00700469, No Iterations 1
GAMG:  Solving for p, Initial residual = 0.0353616, Final residual = 0.00219773, No Iterations 2
GAMG:  Solving for p, Initial residual = 0.0329626, Final residual = 0.00279832, No Iterations 1
GAMG:  Solving for p, Initial residual = 0.0158064, Final residual = 0.00100381, No Iterations 2
time step continuity errors : sum local = 0.257166, global = -0.0224831, cumulative = -1.76155
ExecutionTime = 2.34 s  ClockTime = 3 s

Time = 31

smoothSolver:  Solving for Ux, Initial residual = 0.0187327, Final residual = 9.42442e-06, No Iterations 2
smoothSolver:  Solving for Uy, Initial residual = 0.018374, Final residual = 9.24387e-06, No Iterations 2
smoothSolver:  Solving for Uz, Initial residual = 0.033089, Final residual = 1.32613e-05, No Iterations 2
GAMG:  Solving for p, Initial residual = 0.141643, Final residual = 0.00602093, No Iterations 2
GAMG:  Solving for p, Initial residual = 0.0768422, Final residual = 0.00667391, No Iterations 1
GAMG:  Solving for p, Initial residual = 0.0330456, Final residual = 0.00178461, No Iterations 2
GAMG:  Solving for p, Initial residual = 0.0260429, Final residual = 0.00244958, No Iterations 1
GAMG:  Solving for p, Initial residual = 0.0137779, Final residual = 0.000867393, No Iterations 2
time step continuity errors : sum local = 0.16221, global = -0.0145354, cumulative = -1.77608
ExecutionTime = 2.41 s  ClockTime = 3 s

Time = 32

smoothSolver:  Solving for Ux, Initial residual = 0.0171389, Final residual = 8.64896e-06, No Iterations 2
smoothSolver:  Solving for Uy, Initial residual = 0.0172036, Final residual = 8.62128e-06, No Iterations 2
smoothSolver:  Solving for Uz, Initial residual = 0.0321027, Final residual = 1.26328e-05, No Iterations 2
GAMG:  Solving for p, Initial residual = 0.132276, Final residual = 0.00599043, No Iterations 2
GAMG:  Solving for p, Initial residual = 0.104649, Final residual = 0.00801936, No Iterations 1
GAMG:  Solving for p, Initial residual = 0.0427008, Final residual = 0.00218105, No Iterations 2
GAMG:  Solving for p, Initial residual = 0.036846, Final residual = 0.00302592, No Iterations 1
GAMG:  Solving for p, Initial residual = 0.0175773, Final residual = 0.00089881, No Iterations 2
time step continuity errors : sum local = 0.108191, global = 0.0191305, cumulative = -1.75695
ExecutionTime = 2.49 s  ClockTime = 3 s

Time = 33

smoothSolver:  Solving for Ux, Initial residual = 0.0165768, Final residual = 8.26228e-06, No Iterations 2
smoothSolver:  Solving for Uy, Initial residual = 0.0166275, Final residual = 8.17572e-06, No Iterations 2
smoothSolver:  Solving for Uz, Initial residual = 0.0272795, Final residual = 1.09847e-05, No Iterations 2
GAMG:  Solving for p, Initial residual = 0.129593, Final residual = 0.00690403, No Iterations 2
GAMG:  Solving for p, Initial residual = 0.144714, Final residual = 0.0107971, No Iterations 1
GAMG:  Solving for p, Initial residual = 0.0563373, Final residual = 0.00299354, No Iterations 2
GAMG:  Solving for p, Initial residual = 0.0423031, Final residual = 0.00311436, No Iterations 1
GAMG:  Solving for p, Initial residual = 0.0178944, Final residual = 0.000878784, No Iterations 2
time step continuity errors : sum local = 0.118513, global = 0.0189067, cumulative = -1.73805
ExecutionTime = 2.56 s  ClockTime = 3 s

Time = 34

smoothSolver:  Solving for Ux, Initial residual = 0.0167274, Final residual = 8.17389e-06, No Iterations 2
smoothSolver:  Solving for Uy, Initial residual = 0.0165675, Final residual = 7.93792e-06, No Iterations 2
smoothSolver:  Solving for Uz, Initial residual = 0.0209728, Final residual = 9.03182e-06, No Iterations 2
GAMG:  Solving for p, Initial residual = 0.135916, Final residual = 0.00791641, No Iterations 2
GAMG:  Solving for p, Initial residual = 0.119622, Final residual = 0.00917157, No Iterations 1
GAMG:  Solving for p, Initial residual = 0.0496134, Final residual = 0.00264038, No Iterations 2
GAMG:  Solving for p, Initial residual = 0.0388989, Final residual = 0.00283625, No Iterations 1
GAMG:  Solving for p, Initial residual = 0.0165992, Final residual = 0.000838861, No Iterations 2
time step continuity errors : sum local = 0.138971, global = 0.0268169, cumulative = -1.71123
ExecutionTime = 2.63 s  ClockTime = 3 s

Time = 35

smoothSolver:  Solving for Ux, Initial residual = 0.0169697, Final residual = 8.08929e-06, No Iterations 2
smoothSolver:  Solving for Uy, Initial residual = 0.0166842, Final residual = 7.76613e-06, No Iterations 2
smoothSolver:  Solving for Uz, Initial residual = 0.0166886, Final residual = 7.63398e-06, No Iterations 2
GAMG:  Solving for p, Initial residual = 0.156123, Final residual = 0.0086043, No Iterations 2
GAMG:  Solving for p, Initial residual = 0.0995033, Final residual = 0.00759634, No Iterations 1
GAMG:  Solving for p, Initial residual = 0.0421097, Final residual = 0.00224463, No Iterations 2
GAMG:  Solving for p, Initial residual = 0.035021, Final residual = 0.00262147, No Iterations 1
GAMG:  Solving for p, Initial residual = 0.0154873, Final residual = 0.000827159, No Iterations 2
time step continuity errors : sum local = 0.145409, global = 0.0218482, cumulative = -1.68938
ExecutionTime = 2.71 s  ClockTime = 3 s

Time = 36

smoothSolver:  Solving for Ux, Initial residual = 0.0168356, Final residual = 7.93191e-06, No Iterations 2
smoothSolver:  Solving for Uy, Initial residual = 0.0166336, Final residual = 7.65322e-06, No Iterations 2
smoothSolver:  Solving for Uz, Initial residual = 0.0155716, Final residual = 7.04005e-06, No Iterations 2
GAMG:  Solving for p, Initial residual = 0.173746, Final residual = 0.0079242, No Iterations 2
GAMG:  Solving for p, Initial residual = 0.0820407, Final residual = 0.00634744, No Iterations 1
GAMG:  Solving for p, Initial residual = 0.0333564, Final residual = 0.00188489, No Iterations 2
GAMG:  Solving for p, Initial residual = 0.0309409, Final residual = 0.00243003, No Iterations 1
GAMG:  Solving for p, Initial residual = 0.0143499, Final residual = 0.000819031, No Iterations 2
time step continuity errors : sum local = 0.135417, global = 0.0140207, cumulative = -1.67536
ExecutionTime = 2.77 s  ClockTime = 3 s

Time = 37

smoothSolver:  Solving for Ux, Initial residual = 0.0162947, Final residual = 7.70221e-06, No Iterations 2
smoothSolver:  Solving for Uy, Initial residual = 0.016319, Final residual = 7.46309e-06, No Iterations 2
smoothSolver:  Solving for Uz, Initial residual = 0.0161705, Final residual = 6.95602e-06, No Iterations 2
GAMG:  Solving for p, Initial residual = 0.14529, Final residual = 0.00569076, No Iterations 2
GAMG:  Solving for p, Initial residual = 0.0688014, Final residual = 0.00563738, No Iterations 1
GAMG:  Solving for p, Initial residual = 0.0287491, Final residual = 0.00167487, No Iterations 2
GAMG:  Solving for p, Initial residual = 0.0261432, Final residual = 0.00223497, No Iterations 1
GAMG:  Solving for p, Initial residual = 0.0128224, Final residual = 0.000800442, No Iterations 2
time step continuity errors : sum local = 0.111598, global = 0.0100285, cumulative = -1.66533
ExecutionTime = 2.85 s  ClockTime = 3 s

Time = 38

smoothSolver:  Solving for Ux, Initial residual = 0.0155502, Final residual = 7.35411e-06, No Iterations 2
smoothSolver:  Solving for Uy, Initial residual = 0.0158098, Final residual = 7.22836e-06, No Iterations 2
smoothSolver:  Solving for Uz, Initial residual = 0.0166664, Final residual = 6.88376e-06, No Iterations 2
GAMG:  Solving for p, Initial residual = 0.131281, Final residual = 0.0048714, No Iterations 2
GAMG:  Solving for p, Initial residual = 0.0653535, Final residual = 0.00545521, No Iterations 1
GAMG:  Solving for p, Initial residual = 0.0271493, Final residual = 0.00139193, No Iterations 2
GAMG:  Solving for p, Initial residual = 0.0210442, Final residual = 0.00193215, No Iterations 1
GAMG:  Solving for p, Initial residual = 0.0109685, Final residual = 0.000644319, No Iterations 2
time step continuity errors : sum local = 0.072214, global = 0.00587922, cumulative = -1.65945
ExecutionTime = 2.92 s  ClockTime = 3 s

Time = 39

smoothSolver:  Solving for Ux, Initial residual = 0.0148767, Final residual = 6.9933e-06, No Iterations 2
smoothSolver:  Solving for Uy, Initial residual = 0.0152584, Final residual = 6.91431e-06, No Iterations 2
smoothSolver:  Solving for Uz, Initial residual = 0.0163119, Final residual = 6.56365e-06, No Iterations 2
GAMG:  Solving for p, Initial residual = 0.124343, Final residual = 0.00480672, No Iterations 2
GAMG:  Solving for p, Initial residual = 0.0779349, Final residual = 0.00595674, No Iterations 1
GAMG:  Solving for p, Initial residual = 0.030907, Final residual = 0.00157513, No Iterations 2
GAMG:  Solving for p, Initial residual = 0.0250686, Final residual = 0.00205666, No Iterations 1
GAMG:  Solving for p, Initial residual = 0.0118615, Final residual = 0.000609456, No Iterations 2
time step continuity errors : sum local = 0.0536832, global = -0.0101637, cumulative = -1.66962
ExecutionTime = 2.99 s  ClockTime = 3 s

Time = 40

smoothSolver:  Solving for Ux, Initial residual = 0.0144002, Final residual = 6.77186e-06, No Iterations 2
smoothSolver:  Solving for Uy, Initial residual = 0.0147858, Final residual = 6.70468e-06, No Iterations 2
smoothSolver:  Solving for Uz, Initial residual = 0.0152432, Final residual = 6.16551e-06, No Iterations 2
GAMG:  Solving for p, Initial residual = 0.122093, Final residual = 0.00506142, No Iterations 2
GAMG:  Solving for p, Initial residual = 0.0780237, Final residual = 0.00569279, No Iterations 1
GAMG:  Solving for p, Initial residual = 0.0296672, Final residual = 0.00154575, No Iterations 2
GAMG:  Solving for p, Initial residual = 0.0238288, Final residual = 0.00179708, No Iterations 1
GAMG:  Solving for p, Initial residual = 0.0103292, Final residual = 0.000526373, No Iterations 2
time step continuity errors : sum local = 0.0560796, global = -0.00692945, cumulative = -1.67655
ExecutionTime = 3.07 s  ClockTime = 3 s

Time = 41

smoothSolver:  Solving for Ux, Initial residual = 0.014071, Final residual = 6.60214e-06, No Iterations 2
smoothSolver:  Solving for Uy, Initial residual = 0.0144053, Final residual = 6.49758e-06, No Iterations 2
smoothSolver:  Solving for Uz, Initial residual = 0.0140286, Final residual = 5.8197e-06, No Iterations 2
GAMG:  Solving for p, Initial residual = 0.125659, Final residual = 0.00525345, No Iterations 2
GAMG:  Solving for p, Initial residual = 0.0677345, Final residual = 0.00494784, No Iterations 1
GAMG:  Solving for p, Initial residual = 0.0272791, Final residual = 0.00142316, No Iterations 2
GAMG:  Solving for p, Initial residual = 0.0231154, Final residual = 0.0017137, No Iterations 1
GAMG:  Solving for p, Initial residual = 0.0100003, Final residual = 0.000513899, No Iterations 2
time step continuity errors : sum local = 0.0610222, global = -0.0101236, cumulative = -1.68667
ExecutionTime = 3.13 s  ClockTime = 3 s

Time = 42

smoothSolver:  Solving for Ux, Initial residual = 0.0137389, Final residual = 6.42956e-06, No Iterations 2
smoothSolver:  Solving for Uy, Initial residual = 0.0140365, Final residual = 6.34786e-06, No Iterations 2
smoothSolver:  Solving for Uz, Initial residual = 0.0132376, Final residual = 5.59725e-06, No Iterations 2
GAMG:  Solving for p, Initial residual = 0.13353, Final residual = 0.00509552, No Iterations 2
GAMG:  Solving for p, Initial residual = 0.058574, Final residual = 0.00429043, No Iterations 1
GAMG:  Solving for p, Initial residual = 0.0235882, Final residual = 0.00124112, No Iterations 2
GAMG:  Solving for p, Initial residual = 0.0213436, Final residual = 0.00161458, No Iterations 1
GAMG:  Solving for p, Initial residual = 0.00957422, Final residual = 0.000517306, No Iterations 2
time step continuity errors : sum local = 0.0628805, global = -0.00858244, cumulative = -1.69525
ExecutionTime = 3.21 s  ClockTime = 4 s

Time = 43

smoothSolver:  Solving for Ux, Initial residual = 0.0133303, Final residual = 6.2305e-06, No Iterations 2
smoothSolver:  Solving for Uy, Initial residual = 0.0136544, Final residual = 6.18195e-06, No Iterations 2
smoothSolver:  Solving for Uz, Initial residual = 0.0129071, Final residual = 5.43498e-06, No Iterations 2
GAMG:  Solving for p, Initial residual = 0.118975, Final residual = 0.0109902, No Iterations 1
GAMG:  Solving for p, Initial residual = 0.0440326, Final residual = 0.00236895, No Iterations 2
GAMG:  Solving for p, Initial residual = 0.0310648, Final residual = 0.0024878, No Iterations 1
GAMG:  Solving for p, Initial residual = 0.0139522, Final residual = 0.000796106, No Iterations 2
GAMG:  Solving for p, Initial residual = 0.0141605, Final residual = 0.00113232, No Iterations 1
time step continuity errors : sum local = 0.132098, global = -0.0608569, cumulative = -1.75611
ExecutionTime = 3.27 s  ClockTime = 4 s

Time = 44

smoothSolver:  Solving for Ux, Initial residual = 0.0128785, Final residual = 6.01277e-06, No Iterations 2
smoothSolver:  Solving for Uy, Initial residual = 0.0132733, Final residual = 5.98333e-06, No Iterations 2
smoothSolver:  Solving for Uz, Initial residual = 0.0127512, Final residual = 5.3121e-06, No Iterations 2
GAMG:  Solving for p, Initial residual = 0.107295, Final residual = 0.0100697, No Iterations 1
GAMG:  Solving for p, Initial residual = 0.038893, Final residual = 0.00183082, No Iterations 2
GAMG:  Solving for p, Initial residual = 0.0255271, Final residual = 0.00215808, No Iterations 1
GAMG:  Solving for p, Initial residual = 0.0120814, Final residual = 0.000707673, No Iterations 2
GAMG:  Solving for p, Initial residual = 0.0116608, Final residual = 0.00100169, No Iterations 1
time step continuity errors : sum local = 0.10573, global = -0.0518328, cumulative = -1.80794
ExecutionTime = 3.34 s  ClockTime = 4 s

Time = 45

smoothSolver:  Solving for Ux, Initial residual = 0.0124652, Final residual = 5.79667e-06, No Iterations 2
smoothSolver:  Solving for Uy, Initial residual = 0.0129113, Final residual = 5.78351e-06, No Iterations 2
smoothSolver:  Solving for Uz, Initial residual = 0.0124801, Final residual = 5.16767e-06, No Iterations 2
GAMG:  Solving for p, Initial residual = 0.100027, Final residual = 0.00924525, No Iterations 1
GAMG:  Solving for p, Initial residual = 0.0361316, Final residual = 0.00165572, No Iterations 2
GAMG:  Solving for p, Initial residual = 0.0237473, Final residual = 0.00201896, No Iterations 1
GAMG:  Solving for p, Initial residual = 0.011206, Final residual = 0.000593178, No Iterations 2
GAMG:  Solving for p, Initial residual = 0.00932004, Final residual = 0.00084439, No Iterations 1
time step continuity errors : sum local = 0.0793824, global = -0.0253688, cumulative = -1.83331
ExecutionTime = 3.42 s  ClockTime = 4 s

Time = 46

smoothSolver:  Solving for Ux, Initial residual = 0.0121697, Final residual = 5.60144e-06, No Iterations 2
smoothSolver:  Solving for Uy, Initial residual = 0.0126078, Final residual = 5.59412e-06, No Iterations 2
smoothSolver:  Solving for Uz, Initial residual = 0.0120627, Final residual = 4.94428e-06, No Iterations 2
GAMG:  Solving for p, Initial residual = 0.0956879, Final residual = 0.00825027, No Iterations 1
GAMG:  Solving for p, Initial residual = 0.0347539, Final residual = 0.00169971, No Iterations 2
GAMG:  Solving for p, Initial residual = 0.026956, Final residual = 0.00207883, No Iterations 1
GAMG:  Solving for p, Initial residual = 0.0119269, Final residual = 0.000582334, No Iterations 2
GAMG:  Solving for p, Initial residual = 0.00992123, Final residual = 0.000832739, No Iterations 1
time step continuity errors : sum local = 0.0687944, global = 0.00187052, cumulative = -1.83144
ExecutionTime = 3.48 s  ClockTime = 4 s

Time = 47

smoothSolver:  Solving for Ux, Initial residual = 0.0119908, Final residual = 5.4709e-06, No Iterations 2
smoothSolver:  Solving for Uy, Initial residual = 0.0123811, Final residual = 5.45212e-06, No Iterations 2
smoothSolver:  Solving for Uz, Initial residual = 0.0115752, Final residual = 4.74775e-06, No Iterations 2
GAMG:  Solving for p, Initial residual = 0.0936929, Final residual = 0.00765151, No Iterations 1
GAMG:  Solving for p, Initial residual = 0.0350516, Final residual = 0.00185607, No Iterations 2
GAMG:  Solving for p, Initial residual = 0.0292082, Final residual = 0.00219342, No Iterations 1
GAMG:  Solving for p, Initial residual = 0.0123866, Final residual = 0.000602615, No Iterations 2
GAMG:  Solving for p, Initial residual = 0.010643, Final residual = 0.000844855, No Iterations 1
time step continuity errors : sum local = 0.0692208, global = 0.013969, cumulative = -1.81747
ExecutionTime = 3.56 s  ClockTime = 4 s

Time = 48

smoothSolver:  Solving for Ux, Initial residual = 0.0118717, Final residual = 5.3739e-06, No Iterations 2
smoothSolver:  Solving for Uy, Initial residual = 0.0121967, Final residual = 5.33774e-06, No Iterations 2
smoothSolver:  Solving for Uz, Initial residual = 0.0111241, Final residual = 4.56599e-06, No Iterations 2
GAMG:  Solving for p, Initial residual = 0.093985, Final residual = 0.00748732, No Iterations 1
GAMG:  Solving for p, Initial residual = 0.0355172, Final residual = 0.00194584, No Iterations 2
GAMG:  Solving for p, Initial residual = 0.0270309, Final residual = 0.00202582, No Iterations 1
GAMG:  Solving for p, Initial residual = 0.0114892, Final residual = 0.000560849, No Iterations 2
GAMG:  Solving for p, Initial residual = 0.0106401, Final residual = 0.00081392, No Iterations 1
time step continuity errors : sum local = 0.0709047, global = 0.0217983, cumulative = -1.79567
ExecutionTime = 3.62 s  ClockTime = 4 s

Time = 49

smoothSolver:  Solving for Ux, Initial residual = 0.0117331, Final residual = 5.30296e-06, No Iterations 2
smoothSolver:  Solving for Uy, Initial residual = 0.0120283, Final residual = 5.23059e-06, No Iterations 2
smoothSolver:  Solving for Uz, Initial residual = 0.0108188, Final residual = 4.42639e-06, No Iterations 2
GAMG:  Solving for p, Initial residual = 0.0958598, Final residual = 0.0074684, No Iterations 1
GAMG:  Solving for p, Initial residual = 0.0338534, Final residual = 0.00175875, No Iterations 2
GAMG:  Solving for p, Initial residual = 0.024594, Final residual = 0.00186253, No Iterations 1
GAMG:  Solving for p, Initial residual = 0.0106402, Final residual = 0.000541707, No Iterations 2
GAMG:  Solving for p, Initial residual = 0.0103013, Final residual = 0.000791128, No Iterations 1
time step continuity errors : sum local = 0.0698714, global = 0.0261703, cumulative = -1.7695
ExecutionTime = 3.69 s  ClockTime = 4 s

Time = 50

smoothSolver:  Solving for Ux, Initial residual = 0.0115422, Final residual = 5.17489e-06, No Iterations 2
smoothSolver:  Solving for Uy, Initial residual = 0.0118355, Final residual = 5.09112e-06, No Iterations 2
smoothSolver:  Solving for Uz, Initial residual = 0.0106498, Final residual = 4.32533e-06, No Iterations 2
GAMG:  Solving for p, Initial residual = 0.0978504, Final residual = 0.00753107, No Iterations 1
GAMG:  Solving for p, Initial residual = 0.0313619, Final residual = 0.00145081, No Iterations 2
GAMG:  Solving for p, Initial residual = 0.0212983, Final residual = 0.00166134, No Iterations 1
GAMG:  Solving for p, Initial residual = 0.00953919, Final residual = 0.000504583, No Iterations 2
GAMG:  Solving for p, Initial residual = 0.00931791, Final residual = 0.000737409, No Iterations 1
time step continuity errors : sum local = 0.0635011, global = 0.0267557, cumulative = -1.74275
ExecutionTime = 3.76 s  ClockTime = 4 s

Time = 51

smoothSolver:  Solving for Ux, Initial residual = 0.0113125, Final residual = 5.04805e-06, No Iterations 2
smoothSolver:  Solving for Uy, Initial residual = 0.0116213, Final residual = 4.99111e-06, No Iterations 2
smoothSolver:  Solving for Uz, Initial residual = 0.0105444, Final residual = 4.24972e-06, No Iterations 2
GAMG:  Solving for p, Initial residual = 0.0973397, Final residual = 0.00753578, No Iterations 1
GAMG:  Solving for p, Initial residual = 0.0295217, Final residual = 0.00123432, No Iterations 2
GAMG:  Solving for p, Initial residual = 0.0177886, Final residual = 0.0014493, No Iterations 1
GAMG:  Solving for p, Initial residual = 0.00826584, Final residual = 0.0004424, No Iterations 2
GAMG:  Solving for p, Initial residual = 0.0076449, Final residual = 0.000637886, No Iterations 1
time step continuity errors : sum local = 0.052059, global = 0.0228372, cumulative = -1.71991
ExecutionTime = 3.82 s  ClockTime = 4 s

Time = 52

smoothSolver:  Solving for Ux, Initial residual = 0.011071, Final residual = 4.88537e-06, No Iterations 2
smoothSolver:  Solving for Uy, Initial residual = 0.0113981, Final residual = 4.87756e-06, No Iterations 2
smoothSolver:  Solving for Uz, Initial residual = 0.0104269, Final residual = 4.15888e-06, No Iterations 2
GAMG:  Solving for p, Initial residual = 0.0938654, Final residual = 0.00711738, No Iterations 1
GAMG:  Solving for p, Initial residual = 0.0281892, Final residual = 0.00109385, No Iterations 2
GAMG:  Solving for p, Initial residual = 0.0158674, Final residual = 0.00132515, No Iterations 1
GAMG:  Solving for p, Initial residual = 0.00741846, Final residual = 0.000361613, No Iterations 2
GAMG:  Solving for p, Initial residual = 0.0058313, Final residual = 0.000518582, No Iterations 1
time step continuity errors : sum local = 0.039941, global = 0.0130351, cumulative = -1.70688
ExecutionTime = 3.9 s  ClockTime = 4 s

Time = 53

smoothSolver:  Solving for Ux, Initial residual = 0.0108623, Final residual = 4.76942e-06, No Iterations 2
smoothSolver:  Solving for Uy, Initial residual = 0.0111981, Final residual = 4.76969e-06, No Iterations 2
smoothSolver:  Solving for Uz, Initial residual = 0.0102755, Final residual = 4.0933e-06, No Iterations 2
GAMG:  Solving for p, Initial residual = 0.091202, Final residual = 0.00659161, No Iterations 1
GAMG:  Solving for p, Initial residual = 0.0269624, Final residual = 0.00102127, No Iterations 2
GAMG:  Solving for p, Initial residual = 0.0154238, Final residual = 0.00118932, No Iterations 1
GAMG:  Solving for p, Initial residual = 0.00690031, Final residual = 0.000313733, No Iterations 2
GAMG:  Solving for p, Initial residual = 0.00524671, Final residual = 0.000437814, No Iterations 1
time step continuity errors : sum local = 0.0337859, global = -0.00108702, cumulative = -1.70796
ExecutionTime = 3.96 s  ClockTime = 4 s

Time = 54

smoothSolver:  Solving for Ux, Initial residual = 0.0106751, Final residual = 4.64873e-06, No Iterations 2
smoothSolver:  Solving for Uy, Initial residual = 0.0110134, Final residual = 4.67357e-06, No Iterations 2
smoothSolver:  Solving for Uz, Initial residual = 0.0100882, Final residual = 4.00998e-06, No Iterations 2
GAMG:  Solving for p, Initial residual = 0.0891763, Final residual = 0.00618201, No Iterations 1
GAMG:  Solving for p, Initial residual = 0.0255792, Final residual = 0.0025319, No Iterations 1
GAMG:  Solving for p, Initial residual = 0.0125964, Final residual = 0.000591135, No Iterations 2
GAMG:  Solving for p, Initial residual = 0.00959561, Final residual = 0.000734735, No Iterations 1
GAMG:  Solving for p, Initial residual = 0.00432068, Final residual = 0.000209799, No Iterations 2
time step continuity errors : sum local = 0.0168022, global = -0.00172254, cumulative = -1.70969
ExecutionTime = 4.03 s  ClockTime = 4 s

Time = 55

smoothSolver:  Solving for Ux, Initial residual = 0.0105207, Final residual = 4.5982e-06, No Iterations 2
smoothSolver:  Solving for Uy, Initial residual = 0.0108413, Final residual = 4.60015e-06, No Iterations 2
smoothSolver:  Solving for Uz, Initial residual = 0.00987573, Final residual = 3.94074e-06, No Iterations 2
GAMG:  Solving for p, Initial residual = 0.0868552, Final residual = 0.00588975, No Iterations 1
GAMG:  Solving for p, Initial residual = 0.0242535, Final residual = 0.00236684, No Iterations 1
GAMG:  Solving for p, Initial residual = 0.0120252, Final residual = 0.000582884, No Iterations 2
GAMG:  Solving for p, Initial residual = 0.00938886, Final residual = 0.000711619, No Iterations 1
GAMG:  Solving for p, Initial residual = 0.00420842, Final residual = 0.000210065, No Iterations 2
time step continuity errors : sum local = 0.0173269, global = -0.00253242, cumulative = -1.71222
ExecutionTime = 4.1 s  ClockTime = 4 s

Time = 56

smoothSolver:  Solving for Ux, Initial residual = 0.0103716, Final residual = 4.528e-06, No Iterations 2
smoothSolver:  Solving for Uy, Initial residual = 0.0106714, Final residual = 4.50649e-06, No Iterations 2
smoothSolver:  Solving for Uz, Initial residual = 0.00964953, Final residual = 3.86531e-06, No Iterations 2
GAMG:  Solving for p, Initial residual = 0.0830667, Final residual = 0.00556588, No Iterations 1
GAMG:  Solving for p, Initial residual = 0.02304, Final residual = 0.00221974, No Iterations 1
GAMG:  Solving for p, Initial residual = 0.0112879, Final residual = 0.000563421, No Iterations 2
GAMG:  Solving for p, Initial residual = 0.00886567, Final residual = 0.00068281, No Iterations 1
GAMG:  Solving for p, Initial residual = 0.00405412, Final residual = 0.000211899, No Iterations 2
time step continuity errors : sum local = 0.0176556, global = -0.00284756, cumulative = -1.71507
ExecutionTime = 4.17 s  ClockTime = 5 s

Time = 57

smoothSolver:  Solving for Ux, Initial residual = 0.0102248, Final residual = 4.43142e-06, No Iterations 2
smoothSolver:  Solving for Uy, Initial residual = 0.0105055, Final residual = 4.41917e-06, No Iterations 2
smoothSolver:  Solving for Uz, Initial residual = 0.00943823, Final residual = 3.81971e-06, No Iterations 2
GAMG:  Solving for p, Initial residual = 0.0795655, Final residual = 0.00527578, No Iterations 1
GAMG:  Solving for p, Initial residual = 0.022014, Final residual = 0.00209507, No Iterations 1
GAMG:  Solving for p, Initial residual = 0.0103401, Final residual = 0.00051019, No Iterations 2
GAMG:  Solving for p, Initial residual = 0.00805055, Final residual = 0.000634262, No Iterations 1
GAMG:  Solving for p, Initial residual = 0.00378491, Final residual = 0.000205564, No Iterations 2
time step continuity errors : sum local = 0.01701, global = -0.00234324, cumulative = -1.71741
ExecutionTime = 4.23 s  ClockTime = 5 s

Time = 58

smoothSolver:  Solving for Ux, Initial residual = 0.0100877, Final residual = 4.3472e-06, No Iterations 2
smoothSolver:  Solving for Uy, Initial residual = 0.0103488, Final residual = 4.34458e-06, No Iterations 2
smoothSolver:  Solving for Uz, Initial residual = 0.00924269, Final residual = 3.72693e-06, No Iterations 2
GAMG:  Solving for p, Initial residual = 0.0766231, Final residual = 0.00502663, No Iterations 1
GAMG:  Solving for p, Initial residual = 0.0210772, Final residual = 0.00201452, No Iterations 1
GAMG:  Solving for p, Initial residual = 0.00948135, Final residual = 0.000449865, No Iterations 2
GAMG:  Solving for p, Initial residual = 0.00697193, Final residual = 0.000570415, No Iterations 1
GAMG:  Solving for p, Initial residual = 0.00339391, Final residual = 0.00018541, No Iterations 2
time step continuity errors : sum local = 0.0150771, global = -0.00153597, cumulative = -1.71894
ExecutionTime = 4.31 s  ClockTime = 5 s

Time = 59

smoothSolver:  Solving for Ux, Initial residual = 0.00996969, Final residual = 4.27525e-06, No Iterations 2
smoothSolver:  Solving for Uy, Initial residual = 0.0102039, Final residual = 4.27472e-06, No Iterations 2
smoothSolver:  Solving for Uz, Initial residual = 0.00906259, Final residual = 3.65184e-06, No Iterations 2
GAMG:  Solving for p, Initial residual = 0.0742962, Final residual = 0.00475969, No Iterations 1
GAMG:  Solving for p, Initial residual = 0.0203079, Final residual = 0.00192302, No Iterations 1
GAMG:  Solving for p, Initial residual = 0.00895549, Final residual = 0.000407092, No Iterations 2
GAMG:  Solving for p, Initial residual = 0.00617966, Final residual = 0.000517255, No Iterations 1
GAMG:  Solving for p, Initial residual = 0.00306909, Final residual = 0.000157352, No Iterations 2
time step continuity errors : sum local = 0.0125642, global = -0.000860175, cumulative = -1.7198
ExecutionTime = 4.37 s  ClockTime = 5 s

Time = 60

smoothSolver:  Solving for Ux, Initial residual = 0.00987034, Final residual = 4.19607e-06, No Iterations 2
smoothSolver:  Solving for Uy, Initial residual = 0.0100697, Final residual = 4.17236e-06, No Iterations 2
smoothSolver:  Solving for Uz, Initial residual = 0.00889765, Final residual = 3.54843e-06, No Iterations 2
GAMG:  Solving for p, Initial residual = 0.0726607, Final residual = 0.0045071, No Iterations 1
GAMG:  Solving for p, Initial residual = 0.0196163, Final residual = 0.00180442, No Iterations 1
GAMG:  Solving for p, Initial residual = 0.00861146, Final residual = 0.000377114, No Iterations 2
GAMG:  Solving for p, Initial residual = 0.00609899, Final residual = 0.000479284, No Iterations 1
GAMG:  Solving for p, Initial residual = 0.00296634, Final residual = 0.000135704, No Iterations 2
time step continuity errors : sum local = 0.0106357, global = 0.0020489, cumulative = -1.71776
ExecutionTime = 4.43 s  ClockTime = 5 s

Time = 61

smoothSolver:  Solving for Ux, Initial residual = 0.00977698, Final residual = 4.16291e-06, No Iterations 2
smoothSolver:  Solving for Uy, Initial residual = 0.00994335, Final residual = 4.10469e-06, No Iterations 2
smoothSolver:  Solving for Uz, Initial residual = 0.00873883, Final residual = 3.45833e-06, No Iterations 2
GAMG:  Solving for p, Initial residual = 0.0716185, Final residual = 0.00434344, No Iterations 1
GAMG:  Solving for p, Initial residual = 0.0190978, Final residual = 0.00172857, No Iterations 1
GAMG:  Solving for p, Initial residual = 0.00837682, Final residual = 0.00038394, No Iterations 2
GAMG:  Solving for p, Initial residual = 0.00629732, Final residual = 0.000481761, No Iterations 1
GAMG:  Solving for p, Initial residual = 0.00298167, Final residual = 0.000139986, No Iterations 2
time step continuity errors : sum local = 0.010736, global = 0.00126803, cumulative = -1.71649
ExecutionTime = 4.51 s  ClockTime = 5 s

Time = 62

smoothSolver:  Solving for Ux, Initial residual = 0.00968806, Final residual = 4.10568e-06, No Iterations 2
smoothSolver:  Solving for Uy, Initial residual = 0.00981746, Final residual = 4.03849e-06, No Iterations 2
smoothSolver:  Solving for Uz, Initial residual = 0.00860095, Final residual = 3.39534e-06, No Iterations 2
GAMG:  Solving for p, Initial residual = 0.0707961, Final residual = 0.00426725, No Iterations 1
GAMG:  Solving for p, Initial residual = 0.0186977, Final residual = 0.0017037, No Iterations 1
GAMG:  Solving for p, Initial residual = 0.008194, Final residual = 0.000389663, No Iterations 2
GAMG:  Solving for p, Initial residual = 0.00639616, Final residual = 0.000486253, No Iterations 1
GAMG:  Solving for p, Initial residual = 0.00298845, Final residual = 0.000145229, No Iterations 2
time step continuity errors : sum local = 0.0109642, global = 0.00114602, cumulative = -1.71534
ExecutionTime = 4.57 s  ClockTime = 5 s

Time = 63

smoothSolver:  Solving for Ux, Initial residual = 0.00960074, Final residual = 4.06405e-06, No Iterations 2
smoothSolver:  Solving for Uy, Initial residual = 0.00969204, Final residual = 3.98505e-06, No Iterations 2
smoothSolver:  Solving for Uz, Initial residual = 0.00847854, Final residual = 3.33809e-06, No Iterations 2
GAMG:  Solving for p, Initial residual = 0.070051, Final residual = 0.00421307, No Iterations 1
GAMG:  Solving for p, Initial residual = 0.0184299, Final residual = 0.00169345, No Iterations 1
GAMG:  Solving for p, Initial residual = 0.00800749, Final residual = 0.000383394, No Iterations 2
GAMG:  Solving for p, Initial residual = 0.00624695, Final residual = 0.000477421, No Iterations 1
GAMG:  Solving for p, Initial residual = 0.00293301, Final residual = 0.000144566, No Iterations 2
time step continuity errors : sum local = 0.0108343, global = 0.00132869, cumulative = -1.71401
ExecutionTime = 4.64 s  ClockTime = 5 s

Time = 64

smoothSolver:  Solving for Ux, Initial residual = 0.0095107, Final residual = 4.00955e-06, No Iterations 2
smoothSolver:  Solving for Uy, Initial residual = 0.00956709, Final residual = 3.94544e-06, No Iterations 2
smoothSolver:  Solving for Uz, Initial residual = 0.00837202, Final residual = 3.2764e-06, No Iterations 2
GAMG:  Solving for p, Initial residual = 0.0694179, Final residual = 0.00416779, No Iterations 1
GAMG:  Solving for p, Initial residual = 0.0182002, Final residual = 0.00168943, No Iterations 1
GAMG:  Solving for p, Initial residual = 0.00774066, Final residual = 0.000362687, No Iterations 2
GAMG:  Solving for p, Initial residual = 0.0058317, Final residual = 0.000453275, No Iterations 1
GAMG:  Solving for p, Initial residual = 0.00277792, Final residual = 0.00013879, No Iterations 2
time step continuity errors : sum local = 0.0103826, global = 0.00123937, cumulative = -1.71277
ExecutionTime = 4.71 s  ClockTime = 5 s

Time = 65

smoothSolver:  Solving for Ux, Initial residual = 0.00942439, Final residual = 3.96212e-06, No Iterations 2
smoothSolver:  Solving for Uy, Initial residual = 0.00945292, Final residual = 3.90127e-06, No Iterations 2
smoothSolver:  Solving for Uz, Initial residual = 0.00827394, Final residual = 3.21722e-06, No Iterations 2
GAMG:  Solving for p, Initial residual = 0.068626, Final residual = 0.004128, No Iterations 1
GAMG:  Solving for p, Initial residual = 0.0179689, Final residual = 0.00166717, No Iterations 1
GAMG:  Solving for p, Initial residual = 0.00748292, Final residual = 0.000333034, No Iterations 2
GAMG:  Solving for p, Initial residual = 0.00516737, Final residual = 0.000412223, No Iterations 1
GAMG:  Solving for p, Initial residual = 0.00251978, Final residual = 0.000125182, No Iterations 2
time step continuity errors : sum local = 0.00938565, global = 0.00091392, cumulative = -1.71186
ExecutionTime = 4.77 s  ClockTime = 5 s

Time = 66

smoothSolver:  Solving for Ux, Initial residual = 0.00933951, Final residual = 3.92786e-06, No Iterations 2
smoothSolver:  Solving for Uy, Initial residual = 0.0093469, Final residual = 3.85799e-06, No Iterations 2
smoothSolver:  Solving for Uz, Initial residual = 0.00816896, Final residual = 3.16474e-06, No Iterations 2
GAMG:  Solving for p, Initial residual = 0.067853, Final residual = 0.00405808, No Iterations 1
GAMG:  Solving for p, Initial residual = 0.0177338, Final residual = 0.00162032, No Iterations 1
GAMG:  Solving for p, Initial residual = 0.00728188, Final residual = 0.000294096, No Iterations 2
GAMG:  Solving for p, Initial residual = 0.00454729, Final residual = 0.000370612, No Iterations 1
GAMG:  Solving for p, Initial residual = 0.00225313, Final residual = 0.000106339, No Iterations 2
time step continuity errors : sum local = 0.00801038, global = 0.000574763, cumulative = -1.71129
ExecutionTime = 4.84 s  ClockTime = 5 s

Time = 67

smoothSolver:  Solving for Ux, Initial residual = 0.00925192, Final residual = 3.90446e-06, No Iterations 2
smoothSolver:  Solving for Uy, Initial residual = 0.00924923, Final residual = 3.84476e-06, No Iterations 2
smoothSolver:  Solving for Uz, Initial residual = 0.00805805, Final residual = 3.13368e-06, No Iterations 2
GAMG:  Solving for p, Initial residual = 0.0668868, Final residual = 0.00395914, No Iterations 1
GAMG:  Solving for p, Initial residual = 0.0174208, Final residual = 0.00154582, No Iterations 1
GAMG:  Solving for p, Initial residual = 0.00707707, Final residual = 0.000257933, No Iterations 2
GAMG:  Solving for p, Initial residual = 0.00417957, Final residual = 0.000333805, No Iterations 1
GAMG:  Solving for p, Initial residual = 0.00207572, Final residual = 8.44541e-05, No Iterations 2
time step continuity errors : sum local = 0.00638988, global = 3.05456e-05, cumulative = -1.71125
ExecutionTime = 4.91 s  ClockTime = 5 s

Time = 68

smoothSolver:  Solving for Ux, Initial residual = 0.00916669, Final residual = 3.86978e-06, No Iterations 2
smoothSolver:  Solving for Uy, Initial residual = 0.00917046, Final residual = 3.83238e-06, No Iterations 2
smoothSolver:  Solving for Uz, Initial residual = 0.00794211, Final residual = 3.08151e-06, No Iterations 2
GAMG:  Solving for p, Initial residual = 0.0658816, Final residual = 0.0038605, No Iterations 1
GAMG:  Solving for p, Initial residual = 0.0170136, Final residual = 0.00147257, No Iterations 1
GAMG:  Solving for p, Initial residual = 0.00683555, Final residual = 0.000236978, No Iterations 2
GAMG:  Solving for p, Initial residual = 0.00403716, Final residual = 0.000306853, No Iterations 1
GAMG:  Solving for p, Initial residual = 0.00197076, Final residual = 7.71053e-05, No Iterations 2
time step continuity errors : sum local = 0.00586064, global = -0.000707772, cumulative = -1.71196
ExecutionTime = 4.98 s  ClockTime = 5 s

Time = 69

smoothSolver:  Solving for Ux, Initial residual = 0.00909016, Final residual = 3.84175e-06, No Iterations 2
smoothSolver:  Solving for Uy, Initial residual = 0.00910177, Final residual = 3.80509e-06, No Iterations 2
smoothSolver:  Solving for Uz, Initial residual = 0.00781904, Final residual = 3.01521e-06, No Iterations 2
GAMG:  Solving for p, Initial residual = 0.0648306, Final residual = 0.00377681, No Iterations 1
GAMG:  Solving for p, Initial residual = 0.0166807, Final residual = 0.00143193, No Iterations 1
GAMG:  Solving for p, Initial residual = 0.0066487, Final residual = 0.000243368, No Iterations 2
GAMG:  Solving for p, Initial residual = 0.00401403, Final residual = 0.000300642, No Iterations 1
GAMG:  Solving for p, Initial residual = 0.00193143, Final residual = 8.3291e-05, No Iterations 2
time step continuity errors : sum local = 0.00636466, global = -0.000510887, cumulative = -1.71247
ExecutionTime = 5.05 s  ClockTime = 5 s

Time = 70

smoothSolver:  Solving for Ux, Initial residual = 0.00901906, Final residual = 3.80998e-06, No Iterations 2
smoothSolver:  Solving for Uy, Initial residual = 0.00903162, Final residual = 3.78828e-06, No Iterations 2
smoothSolver:  Solving for Uz, Initial residual = 0.00769157, Final residual = 2.97319e-06, No Iterations 2
GAMG:  Solving for p, Initial residual = 0.0637599, Final residual = 0.00369884, No Iterations 1
GAMG:  Solving for p, Initial residual = 0.0163761, Final residual = 0.00140319, No Iterations 1
GAMG:  Solving for p, Initial residual = 0.00648991, Final residual = 0.000249474, No Iterations 2
GAMG:  Solving for p, Initial residual = 0.00397827, Final residual = 0.000299442, No Iterations 1
GAMG:  Solving for p, Initial residual = 0.0019162, Final residual = 8.76517e-05, No Iterations 2
time step continuity errors : sum local = 0.00671914, global = -0.000530171, cumulative = -1.713
ExecutionTime = 5.11 s  ClockTime = 5 s

Time = 71

smoothSolver:  Solving for Ux, Initial residual = 0.00894939, Final residual = 3.77321e-06, No Iterations 2
smoothSolver:  Solving for Uy, Initial residual = 0.00896332, Final residual = 3.75347e-06, No Iterations 2
smoothSolver:  Solving for Uz, Initial residual = 0.00755956, Final residual = 2.92046e-06, No Iterations 2
GAMG:  Solving for p, Initial residual = 0.0628278, Final residual = 0.00362234, No Iterations 1
GAMG:  Solving for p, Initial residual = 0.0161443, Final residual = 0.00136854, No Iterations 1
GAMG:  Solving for p, Initial residual = 0.00637657, Final residual = 0.000243332, No Iterations 2
GAMG:  Solving for p, Initial residual = 0.00388506, Final residual = 0.000295331, No Iterations 1
GAMG:  Solving for p, Initial residual = 0.00189313, Final residual = 8.81159e-05, No Iterations 2
time step continuity errors : sum local = 0.00676533, global = -0.000520833, cumulative = -1.71352
ExecutionTime = 5.19 s  ClockTime = 6 s

Time = 72

smoothSolver:  Solving for Ux, Initial residual = 0.00888512, Final residual = 3.74684e-06, No Iterations 2
smoothSolver:  Solving for Uy, Initial residual = 0.008895, Final residual = 3.71775e-06, No Iterations 2
smoothSolver:  Solving for Uz, Initial residual = 0.0074294, Final residual = 2.87575e-06, No Iterations 2
GAMG:  Solving for p, Initial residual = 0.0618301, Final residual = 0.00354, No Iterations 1
GAMG:  Solving for p, Initial residual = 0.0158914, Final residual = 0.00133903, No Iterations 1
GAMG:  Solving for p, Initial residual = 0.00625085, Final residual = 0.000231732, No Iterations 2
GAMG:  Solving for p, Initial residual = 0.00370193, Final residual = 0.000286911, No Iterations 1
GAMG:  Solving for p, Initial residual = 0.0018294, Final residual = 8.48138e-05, No Iterations 2
time step continuity errors : sum local = 0.00650325, global = -0.000479954, cumulative = -1.714
ExecutionTime = 5.25 s  ClockTime = 6 s

Time = 73

smoothSolver:  Solving for Ux, Initial residual = 0.00882005, Final residual = 3.74537e-06, No Iterations 2
smoothSolver:  Solving for Uy, Initial residual = 0.00882743, Final residual = 3.70754e-06, No Iterations 2
smoothSolver:  Solving for Uz, Initial residual = 0.0073053, Final residual = 2.85497e-06, No Iterations 2
GAMG:  Solving for p, Initial residual = 0.0610171, Final residual = 0.00346504, No Iterations 1
GAMG:  Solving for p, Initial residual = 0.0156528, Final residual = 0.00130881, No Iterations 1
GAMG:  Solving for p, Initial residual = 0.00614658, Final residual = 0.000216128, No Iterations 2
GAMG:  Solving for p, Initial residual = 0.00350222, Final residual = 0.000276584, No Iterations 1
GAMG:  Solving for p, Initial residual = 0.00175607, Final residual = 7.77284e-05, No Iterations 2
time step continuity errors : sum local = 0.00594785, global = -0.000452184, cumulative = -1.71446
ExecutionTime = 5.32 s  ClockTime = 6 s

Time = 74

smoothSolver:  Solving for Ux, Initial residual = 0.00875535, Final residual = 3.71148e-06, No Iterations 2
smoothSolver:  Solving for Uy, Initial residual = 0.00876166, Final residual = 3.67952e-06, No Iterations 2
smoothSolver:  Solving for Uz, Initial residual = 0.00718611, Final residual = 2.80729e-06, No Iterations 2
GAMG:  Solving for p, Initial residual = 0.0601295, Final residual = 0.00336971, No Iterations 1
GAMG:  Solving for p, Initial residual = 0.0153851, Final residual = 0.00127225, No Iterations 1
GAMG:  Solving for p, Initial residual = 0.00602489, Final residual = 0.000201813, No Iterations 2
GAMG:  Solving for p, Initial residual = 0.00333647, Final residual = 0.000263101, No Iterations 1
GAMG:  Solving for p, Initial residual = 0.00168633, Final residual = 6.85787e-05, No Iterations 2
time step continuity errors : sum local = 0.00523283, global = -0.000176646, cumulative = -1.71463
ExecutionTime = 5.39 s  ClockTime = 6 s

Time = 75

smoothSolver:  Solving for Ux, Initial residual = 0.00868347, Final residual = 3.68619e-06, No Iterations 2
smoothSolver:  Solving for Uy, Initial residual = 0.00870014, Final residual = 3.64812e-06, No Iterations 2
smoothSolver:  Solving for Uz, Initial residual = 0.00707245, Final residual = 2.77087e-06, No Iterations 2
GAMG:  Solving for p, Initial residual = 0.0593205, Final residual = 0.0032954, No Iterations 1
GAMG:  Solving for p, Initial residual = 0.0151641, Final residual = 0.00124302, No Iterations 1
GAMG:  Solving for p, Initial residual = 0.00592272, Final residual = 0.000189238, No Iterations 2
GAMG:  Solving for p, Initial residual = 0.00324502, Final residual = 0.000249373, No Iterations 1
GAMG:  Solving for p, Initial residual = 0.00163192, Final residual = 6.09269e-05, No Iterations 2
time step continuity errors : sum local = 0.00463494, global = 0.000689795, cumulative = -1.71394
ExecutionTime = 5.46 s  ClockTime = 6 s

Time = 76

smoothSolver:  Solving for Ux, Initial residual = 0.00861588, Final residual = 3.66596e-06, No Iterations 2
smoothSolver:  Solving for Uy, Initial residual = 0.00863975, Final residual = 3.62826e-06, No Iterations 2
smoothSolver:  Solving for Uz, Initial residual = 0.0069652, Final residual = 2.73182e-06, No Iterations 2
GAMG:  Solving for p, Initial residual = 0.0585958, Final residual = 0.00326828, No Iterations 1
GAMG:  Solving for p, Initial residual = 0.0149938, Final residual = 0.00123041, No Iterations 1
GAMG:  Solving for p, Initial residual = 0.00585389, Final residual = 0.000188041, No Iterations 2
GAMG:  Solving for p, Initial residual = 0.00322416, Final residual = 0.000248186, No Iterations 1
GAMG:  Solving for p, Initial residual = 0.00161241, Final residual = 6.34863e-05, No Iterations 2
time step continuity errors : sum local = 0.00481288, global = 0.000725075, cumulative = -1.71322
ExecutionTime = 5.53 s  ClockTime = 6 s

Time = 77

smoothSolver:  Solving for Ux, Initial residual = 0.00854853, Final residual = 3.64207e-06, No Iterations 2
smoothSolver:  Solving for Uy, Initial residual = 0.00857945, Final residual = 3.60726e-06, No Iterations 2
smoothSolver:  Solving for Uz, Initial residual = 0.00686027, Final residual = 2.68175e-06, No Iterations 2
GAMG:  Solving for p, Initial residual = 0.057963, Final residual = 0.00324789, No Iterations 1
GAMG:  Solving for p, Initial residual = 0.014835, Final residual = 0.00122842, No Iterations 1
GAMG:  Solving for p, Initial residual = 0.00578165, Final residual = 0.00019242, No Iterations 2
GAMG:  Solving for p, Initial residual = 0.0032248, Final residual = 0.000248043, No Iterations 1
GAMG:  Solving for p, Initial residual = 0.00160332, Final residual = 6.82996e-05, No Iterations 2
time step continuity errors : sum local = 0.00516098, global = 0.000505439, cumulative = -1.71271
ExecutionTime = 5.59 s  ClockTime = 6 s

Time = 78

smoothSolver:  Solving for Ux, Initial residual = 0.00848527, Final residual = 3.61853e-06, No Iterations 2
smoothSolver:  Solving for Uy, Initial residual = 0.00852087, Final residual = 3.5919e-06, No Iterations 2
smoothSolver:  Solving for Uz, Initial residual = 0.00675857, Final residual = 2.63309e-06, No Iterations 2
GAMG:  Solving for p, Initial residual = 0.0574539, Final residual = 0.00323173, No Iterations 1
GAMG:  Solving for p, Initial residual = 0.0146722, Final residual = 0.00122031, No Iterations 1
GAMG:  Solving for p, Initial residual = 0.00573426, Final residual = 0.000193841, No Iterations 2
GAMG:  Solving for p, Initial residual = 0.00319902, Final residual = 0.000246914, No Iterations 1
GAMG:  Solving for p, Initial residual = 0.00159267, Final residual = 7.01451e-05, No Iterations 2
time step continuity errors : sum local = 0.00528555, global = 0.000428929, cumulative = -1.71228
ExecutionTime = 5.66 s  ClockTime = 6 s

Time = 79

smoothSolver:  Solving for Ux, Initial residual = 0.00842817, Final residual = 3.59984e-06, No Iterations 2
smoothSolver:  Solving for Uy, Initial residual = 0.00846379, Final residual = 3.57419e-06, No Iterations 2
smoothSolver:  Solving for Uz, Initial residual = 0.00665785, Final residual = 2.60436e-06, No Iterations 2
GAMG:  Solving for p, Initial residual = 0.0569944, Final residual = 0.00321319, No Iterations 1
GAMG:  Solving for p, Initial residual = 0.0145423, Final residual = 0.00121437, No Iterations 1
GAMG:  Solving for p, Initial residual = 0.00569897, Final residual = 0.000191574, No Iterations 2
GAMG:  Solving for p, Initial residual = 0.00315301, Final residual = 0.000244356, No Iterations 1
GAMG:  Solving for p, Initial residual = 0.00157649, Final residual = 6.99133e-05, No Iterations 2
time step continuity errors : sum local = 0.00525993, global = 0.000402592, cumulative = -1.71188
ExecutionTime = 5.73 s  ClockTime = 6 s

Time = 80

smoothSolver:  Solving for Ux, Initial residual = 0.00836927, Final residual = 3.59613e-06, No Iterations 2
smoothSolver:  Solving for Uy, Initial residual = 0.00840395, Final residual = 3.55127e-06, No Iterations 2
smoothSolver:  Solving for Uz, Initial residual = 0.00655956, Final residual = 2.56668e-06, No Iterations 2
GAMG:  Solving for p, Initial residual = 0.0564355, Final residual = 0.00316577, No Iterations 1
GAMG:  Solving for p, Initial residual = 0.0143772, Final residual = 0.00119129, No Iterations 1
GAMG:  Solving for p, Initial residual = 0.00562597, Final residual = 0.000182209, No Iterations 2
GAMG:  Solving for p, Initial residual = 0.00306201, Final residual = 0.000236565, No Iterations 1
GAMG:  Solving for p, Initial residual = 0.0015373, Final residual = 6.65354e-05, No Iterations 2
time step continuity errors : sum local = 0.00499997, global = 0.000409128, cumulative = -1.71147
ExecutionTime = 5.8 s  ClockTime = 6 s

Time = 81

smoothSolver:  Solving for Ux, Initial residual = 0.00831187, Final residual = 3.56779e-06, No Iterations 2
smoothSolver:  Solving for Uy, Initial residual = 0.00835146, Final residual = 3.55585e-06, No Iterations 2
smoothSolver:  Solving for Uz, Initial residual = 0.00646523, Final residual = 2.5272e-06, No Iterations 2
GAMG:  Solving for p, Initial residual = 0.0559391, Final residual = 0.00311557, No Iterations 1
GAMG:  Solving for p, Initial residual = 0.0142419, Final residual = 0.00116523, No Iterations 1
GAMG:  Solving for p, Initial residual = 0.00555896, Final residual = 0.000548337, No Iterations 1
GAMG:  Solving for p, Initial residual = 0.00277354, Final residual = 0.000106807, No Iterations 2
GAMG:  Solving for p, Initial residual = 0.00179575, Final residual = 0.000145214, No Iterations 1
time step continuity errors : sum local = 0.0108995, global = 0.00159409, cumulative = -1.70988
ExecutionTime = 5.86 s  ClockTime = 6 s

Time = 82

smoothSolver:  Solving for Ux, Initial residual = 0.00825284, Final residual = 3.53071e-06, No Iterations 2
smoothSolver:  Solving for Uy, Initial residual = 0.008295, Final residual = 3.53024e-06, No Iterations 2
smoothSolver:  Solving for Uz, Initial residual = 0.006371, Final residual = 2.48863e-06, No Iterations 2
GAMG:  Solving for p, Initial residual = 0.0552456, Final residual = 0.00308075, No Iterations 1
GAMG:  Solving for p, Initial residual = 0.0141212, Final residual = 0.00114683, No Iterations 1
GAMG:  Solving for p, Initial residual = 0.00549487, Final residual = 0.000534381, No Iterations 1
GAMG:  Solving for p, Initial residual = 0.00272951, Final residual = 9.79449e-05, No Iterations 2
GAMG:  Solving for p, Initial residual = 0.00171609, Final residual = 0.000138188, No Iterations 1
time step continuity errors : sum local = 0.0103712, global = 0.000957724, cumulative = -1.70892
ExecutionTime = 5.93 s  ClockTime = 6 s

Time = 83

smoothSolver:  Solving for Ux, Initial residual = 0.00818699, Final residual = 3.50501e-06, No Iterations 2
[...]
smoothSolver:  Solving for Uz, Initial residual = 0.00628546, Final residual = 2.21453e-06, No Iterations 2
GAMG:  Solving for p, Initial residual = 0.0621315, Final residual = 0.00423951, No Iterations 1
GAMG:  Solving for p, Initial residual = 0.0168746, Final residual = 0.00167092, No Iterations 1
GAMG:  Solving for p, Initial residual = 0.0069858, Final residual = 0.000383865, No Iterations 2
GAMG:  Solving for p, Initial residual = 0.0047607, Final residual = 0.000420651, No Iterations 1
GAMG:  Solving for p, Initial residual = 0.00232555, Final residual = 0.000171606, No Iterations 2
time step continuity errors : sum local = 97.7567, global = -4.86891, cumulative = -704.725
ExecutionTime = 138.05 s  ClockTime = 138 s

Time = 1981

smoothSolver:  Solving for Ux, Initial residual = 0.00749817, Final residual = 3.67469e-06, No Iterations 2
smoothSolver:  Solving for Uy, Initial residual = 0.00650368, Final residual = 3.16933e-06, No Iterations 2
smoothSolver:  Solving for Uz, Initial residual = 0.00629887, Final residual = 2.23169e-06, No Iterations 2
GAMG:  Solving for p, Initial residual = 0.0623694, Final residual = 0.00418594, No Iterations 1
GAMG:  Solving for p, Initial residual = 0.016837, Final residual = 0.00166153, No Iterations 1
GAMG:  Solving for p, Initial residual = 0.00693786, Final residual = 0.000382191, No Iterations 2
GAMG:  Solving for p, Initial residual = 0.00471907, Final residual = 0.000418238, No Iterations 1
GAMG:  Solving for p, Initial residual = 0.00230531, Final residual = 0.000171522, No Iterations 2
time step continuity errors : sum local = 98.9408, global = -4.90901, cumulative = -709.634
ExecutionTime = 138.12 s  ClockTime = 139 s

Time = 1982

smoothSolver:  Solving for Ux, Initial residual = 0.00752284, Final residual = 3.68013e-06, No Iterations 2
smoothSolver:  Solving for Uy, Initial residual = 0.00651153, Final residual = 3.17921e-06, No Iterations 2
smoothSolver:  Solving for Uz, Initial residual = 0.00630244, Final residual = 2.2276e-06, No Iterations 2
GAMG:  Solving for p, Initial residual = 0.0627652, Final residual = 0.00414574, No Iterations 1
GAMG:  Solving for p, Initial residual = 0.0167699, Final residual = 0.00164597, No Iterations 1
GAMG:  Solving for p, Initial residual = 0.00688708, Final residual = 0.000382331, No Iterations 2
GAMG:  Solving for p, Initial residual = 0.00469522, Final residual = 0.000416455, No Iterations 1
GAMG:  Solving for p, Initial residual = 0.00228737, Final residual = 0.000175102, No Iterations 2
time step continuity errors : sum local = 102.306, global = -4.7616, cumulative = -714.396
ExecutionTime = 138.18 s  ClockTime = 139 s

Time = 1983

smoothSolver:  Solving for Ux, Initial residual = 0.00754097, Final residual = 3.70003e-06, No Iterations 2
smoothSolver:  Solving for Uy, Initial residual = 0.00653585, Final residual = 3.18762e-06, No Iterations 2
smoothSolver:  Solving for Uz, Initial residual = 0.00631473, Final residual = 2.25159e-06, No Iterations 2
GAMG:  Solving for p, Initial residual = 0.0627297, Final residual = 0.00411054, No Iterations 1
GAMG:  Solving for p, Initial residual = 0.0166931, Final residual = 0.00162226, No Iterations 1
GAMG:  Solving for p, Initial residual = 0.00683894, Final residual = 0.000380756, No Iterations 2
GAMG:  Solving for p, Initial residual = 0.00464233, Final residual = 0.000411854, No Iterations 1
GAMG:  Solving for p, Initial residual = 0.00225895, Final residual = 0.000174473, No Iterations 2
time step continuity errors : sum local = 103.276, global = -4.80653, cumulative = -719.202
ExecutionTime = 138.26 s  ClockTime = 139 s

Time = 1984

smoothSolver:  Solving for Ux, Initial residual = 0.00757069, Final residual = 3.69781e-06, No Iterations 2
smoothSolver:  Solving for Uy, Initial residual = 0.00654141, Final residual = 3.16878e-06, No Iterations 2
smoothSolver:  Solving for Uz, Initial residual = 0.00631911, Final residual = 2.23137e-06, No Iterations 2
GAMG:  Solving for p, Initial residual = 0.0622274, Final residual = 0.00408434, No Iterations 1
GAMG:  Solving for p, Initial residual = 0.016562, Final residual = 0.00159229, No Iterations 1
GAMG:  Solving for p, Initial residual = 0.00675942, Final residual = 0.000372144, No Iterations 2
GAMG:  Solving for p, Initial residual = 0.00455636, Final residual = 0.000402895, No Iterations 1
GAMG:  Solving for p, Initial residual = 0.00222168, Final residual = 0.00017128, No Iterations 2
time step continuity errors : sum local = 102.526, global = -5.17886, cumulative = -724.381
ExecutionTime = 138.32 s  ClockTime = 139 s

Time = 1985

smoothSolver:  Solving for Ux, Initial residual = 0.00758835, Final residual = 3.69018e-06, No Iterations 2
smoothSolver:  Solving for Uy, Initial residual = 0.00654497, Final residual = 3.1683e-06, No Iterations 2
smoothSolver:  Solving for Uz, Initial residual = 0.00633423, Final residual = 2.23016e-06, No Iterations 2
GAMG:  Solving for p, Initial residual = 0.0621284, Final residual = 0.00410891, No Iterations 1
GAMG:  Solving for p, Initial residual = 0.0166369, Final residual = 0.00158629, No Iterations 1
GAMG:  Solving for p, Initial residual = 0.0068187, Final residual = 0.000366291, No Iterations 2
GAMG:  Solving for p, Initial residual = 0.00454814, Final residual = 0.000398913, No Iterations 1
GAMG:  Solving for p, Initial residual = 0.00221587, Final residual = 0.00016983, No Iterations 2
time step continuity errors : sum local = 102.86, global = -5.46227, cumulative = -729.843
ExecutionTime = 138.39 s  ClockTime = 139 s

Time = 1986

smoothSolver:  Solving for Ux, Initial residual = 0.00760068, Final residual = 3.72071e-06, No Iterations 2
smoothSolver:  Solving for Uy, Initial residual = 0.00655489, Final residual = 3.17809e-06, No Iterations 2
smoothSolver:  Solving for Uz, Initial residual = 0.00634508, Final residual = 2.23177e-06, No Iterations 2
GAMG:  Solving for p, Initial residual = 0.0622847, Final residual = 0.0041305, No Iterations 1
GAMG:  Solving for p, Initial residual = 0.0166601, Final residual = 0.00159786, No Iterations 1
GAMG:  Solving for p, Initial residual = 0.00685043, Final residual = 0.000362723, No Iterations 2
GAMG:  Solving for p, Initial residual = 0.00455373, Final residual = 0.000401494, No Iterations 1
GAMG:  Solving for p, Initial residual = 0.00221852, Final residual = 0.000169376, No Iterations 2
time step continuity errors : sum local = 103.701, global = -5.87334, cumulative = -735.717
ExecutionTime = 138.46 s  ClockTime = 139 s

Time = 1987

smoothSolver:  Solving for Ux, Initial residual = 0.00761865, Final residual = 3.75563e-06, No Iterations 2
smoothSolver:  Solving for Uy, Initial residual = 0.00657686, Final residual = 3.20888e-06, No Iterations 2
smoothSolver:  Solving for Uz, Initial residual = 0.00635702, Final residual = 2.25261e-06, No Iterations 2
GAMG:  Solving for p, Initial residual = 0.062449, Final residual = 0.00414225, No Iterations 1
GAMG:  Solving for p, Initial residual = 0.0168036, Final residual = 0.00161369, No Iterations 1
GAMG:  Solving for p, Initial residual = 0.00689763, Final residual = 0.000362422, No Iterations 2
GAMG:  Solving for p, Initial residual = 0.00456631, Final residual = 0.000406776, No Iterations 1
GAMG:  Solving for p, Initial residual = 0.002237, Final residual = 0.00017006, No Iterations 2
time step continuity errors : sum local = 105.309, global = -6.32044, cumulative = -742.037
ExecutionTime = 138.53 s  ClockTime = 139 s

Time = 1988

smoothSolver:  Solving for Ux, Initial residual = 0.00763834, Final residual = 3.77263e-06, No Iterations 2
smoothSolver:  Solving for Uy, Initial residual = 0.00659073, Final residual = 3.20909e-06, No Iterations 2
smoothSolver:  Solving for Uz, Initial residual = 0.00636167, Final residual = 2.23819e-06, No Iterations 2
GAMG:  Solving for p, Initial residual = 0.0627008, Final residual = 0.00412401, No Iterations 1
GAMG:  Solving for p, Initial residual = 0.0169056, Final residual = 0.00162, No Iterations 1
GAMG:  Solving for p, Initial residual = 0.0069147, Final residual = 0.000367486, No Iterations 2
GAMG:  Solving for p, Initial residual = 0.00460816, Final residual = 0.000411561, No Iterations 1
GAMG:  Solving for p, Initial residual = 0.00226583, Final residual = 0.000172581, No Iterations 2
time step continuity errors : sum local = 108.055, global = -6.46181, cumulative = -748.499
ExecutionTime = 138.6 s  ClockTime = 139 s

Time = 1989

smoothSolver:  Solving for Ux, Initial residual = 0.00764577, Final residual = 3.74487e-06, No Iterations 2
smoothSolver:  Solving for Uy, Initial residual = 0.00660807, Final residual = 3.21706e-06, No Iterations 2
smoothSolver:  Solving for Uz, Initial residual = 0.00636847, Final residual = 2.2353e-06, No Iterations 2
GAMG:  Solving for p, Initial residual = 0.063049, Final residual = 0.00411053, No Iterations 1
GAMG:  Solving for p, Initial residual = 0.0170199, Final residual = 0.00163355, No Iterations 1
GAMG:  Solving for p, Initial residual = 0.00696186, Final residual = 0.000376457, No Iterations 2
GAMG:  Solving for p, Initial residual = 0.00467029, Final residual = 0.000418638, No Iterations 1
GAMG:  Solving for p, Initial residual = 0.00230497, Final residual = 0.000176641, No Iterations 2
time step continuity errors : sum local = 111.697, global = -6.62254, cumulative = -755.121
ExecutionTime = 138.67 s  ClockTime = 139 s

Time = 1990

smoothSolver:  Solving for Ux, Initial residual = 0.00765715, Final residual = 3.73544e-06, No Iterations 2
smoothSolver:  Solving for Uy, Initial residual = 0.00662751, Final residual = 3.21229e-06, No Iterations 2
smoothSolver:  Solving for Uz, Initial residual = 0.00637739, Final residual = 2.22386e-06, No Iterations 2
GAMG:  Solving for p, Initial residual = 0.063365, Final residual = 0.00410049, No Iterations 1
GAMG:  Solving for p, Initial residual = 0.0171004, Final residual = 0.0016299, No Iterations 1
GAMG:  Solving for p, Initial residual = 0.00694418, Final residual = 0.000384816, No Iterations 2
GAMG:  Solving for p, Initial residual = 0.00470446, Final residual = 0.000420736, No Iterations 1
GAMG:  Solving for p, Initial residual = 0.0023094, Final residual = 0.000178458, No Iterations 2
time step continuity errors : sum local = 113.995, global = -6.33984, cumulative = -761.461
ExecutionTime = 138.73 s  ClockTime = 139 s

Time = 1991

smoothSolver:  Solving for Ux, Initial residual = 0.00766436, Final residual = 3.72848e-06, No Iterations 2
smoothSolver:  Solving for Uy, Initial residual = 0.00663695, Final residual = 3.21474e-06, No Iterations 2
smoothSolver:  Solving for Uz, Initial residual = 0.00639612, Final residual = 2.22989e-06, No Iterations 2
GAMG:  Solving for p, Initial residual = 0.0637309, Final residual = 0.00411043, No Iterations 1
GAMG:  Solving for p, Initial residual = 0.0173149, Final residual = 0.0016297, No Iterations 1
GAMG:  Solving for p, Initial residual = 0.0070192, Final residual = 0.000391528, No Iterations 2
GAMG:  Solving for p, Initial residual = 0.00478565, Final residual = 0.000422658, No Iterations 1
GAMG:  Solving for p, Initial residual = 0.00233937, Final residual = 0.000180343, No Iterations 2
time step continuity errors : sum local = 116.621, global = -6.21051, cumulative = -767.672
ExecutionTime = 138.8 s  ClockTime = 139 s

Time = 1992

smoothSolver:  Solving for Ux, Initial residual = 0.00768139, Final residual = 3.77675e-06, No Iterations 2
smoothSolver:  Solving for Uy, Initial residual = 0.00666036, Final residual = 3.22135e-06, No Iterations 2
smoothSolver:  Solving for Uz, Initial residual = 0.00640231, Final residual = 2.2248e-06, No Iterations 2
GAMG:  Solving for p, Initial residual = 0.0636644, Final residual = 0.0041305, No Iterations 1
GAMG:  Solving for p, Initial residual = 0.0174853, Final residual = 0.00162773, No Iterations 1
GAMG:  Solving for p, Initial residual = 0.00709006, Final residual = 0.00039533, No Iterations 2
GAMG:  Solving for p, Initial residual = 0.0048556, Final residual = 0.000420475, No Iterations 1
GAMG:  Solving for p, Initial residual = 0.0023552, Final residual = 0.000179802, No Iterations 2
time step continuity errors : sum local = 117.556, global = -5.77665, cumulative = -773.448
ExecutionTime = 138.87 s  ClockTime = 139 s

Time = 1993

smoothSolver:  Solving for Ux, Initial residual = 0.00769785, Final residual = 3.7927e-06, No Iterations 2
smoothSolver:  Solving for Uy, Initial residual = 0.00669116, Final residual = 3.25116e-06, No Iterations 2
smoothSolver:  Solving for Uz, Initial residual = 0.00641268, Final residual = 2.25013e-06, No Iterations 2
GAMG:  Solving for p, Initial residual = 0.0639996, Final residual = 0.00413856, No Iterations 1
GAMG:  Solving for p, Initial residual = 0.0175178, Final residual = 0.00161006, No Iterations 1
GAMG:  Solving for p, Initial residual = 0.00708938, Final residual = 0.000392685, No Iterations 2
GAMG:  Solving for p, Initial residual = 0.00484011, Final residual = 0.000415652, No Iterations 1
GAMG:  Solving for p, Initial residual = 0.00234927, Final residual = 0.000179634, No Iterations 2
time step continuity errors : sum local = 118.942, global = -5.68375, cumulative = -779.132
ExecutionTime = 138.94 s  ClockTime = 139 s

Time = 1994

smoothSolver:  Solving for Ux, Initial residual = 0.00771605, Final residual = 3.83514e-06, No Iterations 2
smoothSolver:  Solving for Uy, Initial residual = 0.00672155, Final residual = 3.24414e-06, No Iterations 2
smoothSolver:  Solving for Uz, Initial residual = 0.00641044, Final residual = 2.23418e-06, No Iterations 2
GAMG:  Solving for p, Initial residual = 0.0638068, Final residual = 0.00417844, No Iterations 1
GAMG:  Solving for p, Initial residual = 0.0174747, Final residual = 0.00160066, No Iterations 1
GAMG:  Solving for p, Initial residual = 0.00708535, Final residual = 0.000384538, No Iterations 2
GAMG:  Solving for p, Initial residual = 0.00481021, Final residual = 0.000410791, No Iterations 1
GAMG:  Solving for p, Initial residual = 0.00235038, Final residual = 0.000175172, No Iterations 2
time step continuity errors : sum local = 117.378, global = -6.0534, cumulative = -785.186
ExecutionTime = 139.01 s  ClockTime = 139 s

Time = 1995

smoothSolver:  Solving for Ux, Initial residual = 0.00773784, Final residual = 3.85741e-06, No Iterations 2
smoothSolver:  Solving for Uy, Initial residual = 0.00675151, Final residual = 3.2654e-06, No Iterations 2
smoothSolver:  Solving for Uz, Initial residual = 0.00642026, Final residual = 2.25269e-06, No Iterations 2
GAMG:  Solving for p, Initial residual = 0.0639011, Final residual = 0.00421747, No Iterations 1
GAMG:  Solving for p, Initial residual = 0.0174368, Final residual = 0.001603, No Iterations 1
GAMG:  Solving for p, Initial residual = 0.00708884, Final residual = 0.000378084, No Iterations 2
GAMG:  Solving for p, Initial residual = 0.00477095, Final residual = 0.000407884, No Iterations 1
GAMG:  Solving for p, Initial residual = 0.00234393, Final residual = 0.000172676, No Iterations 2
time step continuity errors : sum local = 116.908, global = -6.28786, cumulative = -791.474
ExecutionTime = 139.08 s  ClockTime = 139 s

Time = 1996

smoothSolver:  Solving for Ux, Initial residual = 0.00775249, Final residual = 3.86837e-06, No Iterations 2
smoothSolver:  Solving for Uy, Initial residual = 0.00677526, Final residual = 3.27549e-06, No Iterations 2
smoothSolver:  Solving for Uz, Initial residual = 0.00643228, Final residual = 2.25058e-06, No Iterations 2
GAMG:  Solving for p, Initial residual = 0.0651546, Final residual = 0.00424742, No Iterations 1
GAMG:  Solving for p, Initial residual = 0.0182891, Final residual = 0.00161439, No Iterations 1
GAMG:  Solving for p, Initial residual = 0.00721474, Final residual = 0.000376345, No Iterations 2
GAMG:  Solving for p, Initial residual = 0.00478116, Final residual = 0.000408712, No Iterations 1
GAMG:  Solving for p, Initial residual = 0.00234361, Final residual = 0.000172606, No Iterations 2
time step continuity errors : sum local = 118.381, global = -6.59736, cumulative = -798.071
ExecutionTime = 139.14 s  ClockTime = 140 s

Time = 1997

smoothSolver:  Solving for Ux, Initial residual = 0.00774823, Final residual = 3.85846e-06, No Iterations 2
smoothSolver:  Solving for Uy, Initial residual = 0.00678986, Final residual = 3.30284e-06, No Iterations 2
smoothSolver:  Solving for Uz, Initial residual = 0.00644413, Final residual = 2.24114e-06, No Iterations 2
GAMG:  Solving for p, Initial residual = 0.0651715, Final residual = 0.00444094, No Iterations 1
GAMG:  Solving for p, Initial residual = 0.0179365, Final residual = 0.00168831, No Iterations 1
GAMG:  Solving for p, Initial residual = 0.0072792, Final residual = 0.000387196, No Iterations 2
GAMG:  Solving for p, Initial residual = 0.00484218, Final residual = 0.000415637, No Iterations 1
GAMG:  Solving for p, Initial residual = 0.0023749, Final residual = 0.000176838, No Iterations 2
time step continuity errors : sum local = 122.929, global = -6.42796, cumulative = -804.499
ExecutionTime = 139.22 s  ClockTime = 140 s

Time = 1998

smoothSolver:  Solving for Ux, Initial residual = 0.00777059, Final residual = 3.84687e-06, No Iterations 2
smoothSolver:  Solving for Uy, Initial residual = 0.00680518, Final residual = 3.31075e-06, No Iterations 2
smoothSolver:  Solving for Uz, Initial residual = 0.00645246, Final residual = 2.24274e-06, No Iterations 2
GAMG:  Solving for p, Initial residual = 0.0649082, Final residual = 0.00458444, No Iterations 1
GAMG:  Solving for p, Initial residual = 0.0180248, Final residual = 0.00174762, No Iterations 1
GAMG:  Solving for p, Initial residual = 0.00738116, Final residual = 0.000398091, No Iterations 2
GAMG:  Solving for p, Initial residual = 0.00493508, Final residual = 0.000422902, No Iterations 1
GAMG:  Solving for p, Initial residual = 0.00239139, Final residual = 0.000177778, No Iterations 2
time step continuity errors : sum local = 125.229, global = -6.72756, cumulative = -811.226
ExecutionTime = 139.28 s  ClockTime = 140 s

Time = 1999

smoothSolver:  Solving for Ux, Initial residual = 0.0078163, Final residual = 3.83711e-06, No Iterations 2
smoothSolver:  Solving for Uy, Initial residual = 0.00682736, Final residual = 3.34679e-06, No Iterations 2
smoothSolver:  Solving for Uz, Initial residual = 0.00646361, Final residual = 2.23722e-06, No Iterations 2
GAMG:  Solving for p, Initial residual = 0.0650004, Final residual = 0.00451748, No Iterations 1
GAMG:  Solving for p, Initial residual = 0.0179568, Final residual = 0.00170877, No Iterations 1
GAMG:  Solving for p, Initial residual = 0.00729359, Final residual = 0.000394803, No Iterations 2
GAMG:  Solving for p, Initial residual = 0.00491982, Final residual = 0.00042377, No Iterations 1
GAMG:  Solving for p, Initial residual = 0.00240409, Final residual = 0.00017946, No Iterations 2
time step continuity errors : sum local = 127.761, global = -6.64902, cumulative = -817.875
ExecutionTime = 139.36 s  ClockTime = 140 s

Time = 2000

smoothSolver:  Solving for Ux, Initial residual = 0.00779769, Final residual = 3.81349e-06, No Iterations 2
smoothSolver:  Solving for Uy, Initial residual = 0.00683093, Final residual = 3.39233e-06, No Iterations 2
smoothSolver:  Solving for Uz, Initial residual = 0.00647086, Final residual = 2.25456e-06, No Iterations 2
GAMG:  Solving for p, Initial residual = 0.0648018, Final residual = 0.00440349, No Iterations 1
GAMG:  Solving for p, Initial residual = 0.0178174, Final residual = 0.00166922, No Iterations 1
GAMG:  Solving for p, Initial residual = 0.00726149, Final residual = 0.000395759, No Iterations 2
GAMG:  Solving for p, Initial residual = 0.00492229, Final residual = 0.000423487, No Iterations 1
GAMG:  Solving for p, Initial residual = 0.00240985, Final residual = 0.000180682, No Iterations 2
time step continuity errors : sum local = 130.111, global = -6.51222, cumulative = -824.388
ExecutionTime = 139.55 s  ClockTime = 140 s

End

