/*---------------------------------------------------------------------------*\
| =========                 |                                                 |
| \\      /  F ield         | OpenFOAM: The Open Source CFD Toolbox           |
|  \\    /   O peration     | Version:  2412                                  |
|   \\  /    A nd           | Website:  www.openfoam.com                      |
|    \\/     M anipulation  |                                                 |
\*---------------------------------------------------------------------------*/
Build  : _f00230df-20250528 OPENFOAM=2412 patch=250528 version=2412
Arch   : "LSB;label=32;scalar=64"
Exec   : simpleFoam -case cases/fan_0
Date   : Dec 08 2025
Time   : 02:00:58
Host   : LAPTOP-GNN8LC85
PID    : 10691
I/O    : uncollated
Case   : /mnt/c/Users/Ibrahim/Desktop/Godela-AI/my_Godela_repo/ibrahim_folder/cases/fan_0
nProcs : 1
trapFpe: Floating point exception trapping enabled (FOAM_SIGFPE).
fileModificationChecking : Monitoring run-time modified files using timeStampMaster (fileModificationSkew 5, maxFileModificationPolls 20)
allowSystemOperations : Allowing user-supplied system call operations

// * * * * * * * * * * * * * * * * * * * * * * * * * * * * * * * * * * * * * //
Create time

Create mesh for time = 0


SIMPLE: convergence criteria
    field U	 tolerance 1e-05
    field p	 tolerance 0.0001
    field k	 tolerance 1e-05
    field omega	 tolerance 1e-05

Reading field p

Reading field U

Reading/calculating face flux field phi

--> FOAM Warning :
    From bool Foam::IOobject::readAndCheckHeader(bool, const Foam::word&, bool, bool, bool)
    in file db/IOobject/IOobjectReadHeader.C at line 263
    Unexpected class name "volScalarField" expected "surfaceScalarField" when reading "/mnt/c/Users/Ibrahim/Desktop/Godela-AI/my_Godela_repo/ibrahim_folder/cases/fan_0/0/phi"
Selecting incompressible transport model Newtonian
Selecting turbulence model type RAS
Selecting RAS turbulence model kOmegaSST
Selecting patchDistMethod meshWave
RAS
{
    RASModel        kOmegaSST;
    turbulence      on;
    printCoeffs     on;
    alphaK1         0.85;
    alphaK2         1;
    alphaOmega1     0.5;
    alphaOmega2     0.856;
    gamma1          0.555556;
    gamma2          0.44;
    beta1           0.075;
    beta2           0.0828;
    betaStar        0.09;
    a1              0.31;
    b1              1;
    c1              10;
    F3              false;
    decayControl    false;
    kInf            0;
    omegaInf        0;
}

No MRF models present

No finite volume options present

Starting time loop

surfaceFieldValue massFlowInlet:
    operation     = sum


surfaceFieldValue massFlowOutlet:
    operation     = sum


surfaceFieldValue outletVelocity:
    operation     = areaAverage


Time = 1

smoothSolver:  Solving for Ux, Initial residual = 0.281254, Final residual = 0.0013667, No Iterations 2
smoothSolver:  Solving for Uy, Initial residual = 0.378197, Final residual = 0.00151167, No Iterations 2
smoothSolver:  Solving for Uz, Initial residual = 0.267052, Final residual = 0.00144626, No Iterations 2
GAMG:  Solving for p, Initial residual = 1, Final residual = 0.00688292, No Iterations 9
GAMG:  Solving for p, Initial residual = 0.414313, Final residual = 0.00381905, No Iterations 2
GAMG:  Solving for p, Initial residual = 0.0475769, Final residual = 0.000303821, No Iterations 4
GAMG:  Solving for p, Initial residual = 0.0145072, Final residual = 7.91876e-05, No Iterations 4
GAMG:  Solving for p, Initial residual = 0.00450367, Final residual = 3.78497e-05, No Iterations 3
time step continuity errors : sum local = 1.34045, global = -0.0214832, cumulative = -0.0214832
smoothSolver:  Solving for omega, Initial residual = 0.236752, Final residual = 0.0222113, No Iterations 18
smoothSolver:  Solving for k, Initial residual = 1, Final residual = 0.0980711, No Iterations 30
ExecutionTime = 1.27 s  ClockTime = 2 s

surfaceFieldValue massFlowInlet write:
    total faces   = 354
    total area    = 0.00030668

    sum(velocity_inlet) of phi = 0

surfaceFieldValue massFlowOutlet write:
    total faces   = 354
    total area    = 0.00030668

    sum(pressure_outlet) of phi = -1.1631e-06

surfaceFieldValue outletVelocity write:
    total faces   = 354
    total area    = 0.00030668

    areaAverage(pressure_outlet) of U = (0.291828 -33.6039 0.0391133)

Time = 2

smoothSolver:  Solving for Ux, Initial residual = 0.316301, Final residual = 0.00340336, No Iterations 2
smoothSolver:  Solving for Uy, Initial residual = 0.405586, Final residual = 0.00314274, No Iterations 2
smoothSolver:  Solving for Uz, Initial residual = 0.316973, Final residual = 0.00285183, No Iterations 2
GAMG:  Solving for p, Initial residual = 0.420998, Final residual = 0.00283249, No Iterations 6
GAMG:  Solving for p, Initial residual = 0.232053, Final residual = 0.00134364, No Iterations 4
GAMG:  Solving for p, Initial residual = 0.0602253, Final residual = 0.000359202, No Iterations 4
GAMG:  Solving for p, Initial residual = 0.0156541, Final residual = 0.000133092, No Iterations 4
GAMG:  Solving for p, Initial residual = 0.00475714, Final residual = 2.96404e-05, No Iterations 4
time step continuity errors : sum local = 0.62761, global = -0.076802, cumulative = -0.0982852
smoothSolver:  Solving for omega, Initial residual = 0.748897, Final residual = 0.0637287, No Iterations 18
smoothSolver:  Solving for k, Initial residual = 0.967302, Final residual = 0.0589637, No Iterations 4
ExecutionTime = 1.71 s  ClockTime = 2 s

surfaceFieldValue massFlowInlet write:
    sum(velocity_inlet) of phi = 0

surfaceFieldValue massFlowOutlet write:
    sum(pressure_outlet) of phi = -4.15805e-06

surfaceFieldValue outletVelocity write:
    areaAverage(pressure_outlet) of U = (0.196764 2.49493 0.257528)

Time = 3

smoothSolver:  Solving for Ux, Initial residual = 0.267283, Final residual = 0.00261681, No Iterations 2
smoothSolver:  Solving for Uy, Initial residual = 0.355054, Final residual = 0.00260501, No Iterations 2
smoothSolver:  Solving for Uz, Initial residual = 0.285329, Final residual = 0.00255966, No Iterations 2
GAMG:  Solving for p, Initial residual = 0.445923, Final residual = 0.00242046, No Iterations 9
GAMG:  Solving for p, Initial residual = 0.461088, Final residual = 0.00382368, No Iterations 2
GAMG:  Solving for p, Initial residual = 0.0691651, Final residual = 0.000636122, No Iterations 4
GAMG:  Solving for p, Initial residual = 0.0220935, Final residual = 0.000217848, No Iterations 3
GAMG:  Solving for p, Initial residual = 0.00608461, Final residual = 3.98786e-05, No Iterations 4
time step continuity errors : sum local = 1.34288, global = -0.201459, cumulative = -0.299744
smoothSolver:  Solving for omega, Initial residual = 0.673417, Final residual = 0.0658025, No Iterations 2
smoothSolver:  Solving for k, Initial residual = 0.792032, Final residual = 0.0404268, No Iterations 6
ExecutionTime = 2.14 s  ClockTime = 2 s

surfaceFieldValue massFlowInlet write:
    sum(velocity_inlet) of phi = 0

surfaceFieldValue massFlowOutlet write:
    sum(pressure_outlet) of phi = -1.0907e-05

surfaceFieldValue outletVelocity write:
    areaAverage(pressure_outlet) of U = (0.374351 31.913 -1.25433)

Time = 4

smoothSolver:  Solving for Ux, Initial residual = 0.214398, Final residual = 0.00207405, No Iterations 2
smoothSolver:  Solving for Uy, Initial residual = 0.252361, Final residual = 0.00206497, No Iterations 2
smoothSolver:  Solving for Uz, Initial residual = 0.236603, Final residual = 0.00272119, No Iterations 2
GAMG:  Solving for p, Initial residual = 0.557527, Final residual = 0.00321743, No Iterations 9
GAMG:  Solving for p, Initial residual = 0.38342, Final residual = 0.00305502, No Iterations 2
GAMG:  Solving for p, Initial residual = 0.0495219, Final residual = 0.000436976, No Iterations 4
GAMG:  Solving for p, Initial residual = 0.0163356, Final residual = 0.000156869, No Iterations 3
GAMG:  Solving for p, Initial residual = 0.00467348, Final residual = 4.06647e-05, No Iterations 3
time step continuity errors : sum local = 2.11765, global = 0.122969, cumulative = -0.176775
smoothSolver:  Solving for omega, Initial residual = 0.474514, Final residual = 0.0357677, No Iterations 4
smoothSolver:  Solving for k, Initial residual = 0.665198, Final residual = 0.0620077, No Iterations 6
ExecutionTime = 2.9 s  ClockTime = 3 s

surfaceFieldValue massFlowInlet write:
    sum(velocity_inlet) of phi = 0

surfaceFieldValue massFlowOutlet write:
    sum(pressure_outlet) of phi = 6.65752e-06

surfaceFieldValue outletVelocity write:
    areaAverage(pressure_outlet) of U = (0.262428 39.4787 -0.727772)

Time = 5

smoothSolver:  Solving for Ux, Initial residual = 0.212222, Final residual = 0.00188335, No Iterations 2
smoothSolver:  Solving for Uy, Initial residual = 0.189561, Final residual = 0.00158557, No Iterations 2
smoothSolver:  Solving for Uz, Initial residual = 0.213284, Final residual = 0.00254108, No Iterations 2
GAMG:  Solving for p, Initial residual = 0.593558, Final residual = 0.00432616, No Iterations 9
GAMG:  Solving for p, Initial residual = 0.331791, Final residual = 0.00268646, No Iterations 2
GAMG:  Solving for p, Initial residual = 0.0416582, Final residual = 0.000395629, No Iterations 4
GAMG:  Solving for p, Initial residual = 0.0140222, Final residual = 0.000131273, No Iterations 3
GAMG:  Solving for p, Initial residual = 0.00384422, Final residual = 1.97258e-05, No Iterations 4
time step continuity errors : sum local = 0.901163, global = -0.141045, cumulative = -0.31782
smoothSolver:  Solving for omega, Initial residual = 0.440059, Final residual = 0.0284249, No Iterations 4
smoothSolver:  Solving for k, Initial residual = 0.651015, Final residual = 0.0315246, No Iterations 6
ExecutionTime = 3.4 s  ClockTime = 4 s

surfaceFieldValue massFlowInlet write:
    sum(velocity_inlet) of phi = 0

surfaceFieldValue massFlowOutlet write:
    sum(pressure_outlet) of phi = -7.63617e-06

surfaceFieldValue outletVelocity write:
    areaAverage(pressure_outlet) of U = (-0.0413912 32.3198 -0.808167)

Time = 6

smoothSolver:  Solving for Ux, Initial residual = 0.180845, Final residual = 0.00150775, No Iterations 2
smoothSolver:  Solving for Uy, Initial residual = 0.245914, Final residual = 0.00166463, No Iterations 2
smoothSolver:  Solving for Uz, Initial residual = 0.186276, Final residual = 0.00162235, No Iterations 2
GAMG:  Solving for p, Initial residual = 0.44614, Final residual = 0.0040033, No Iterations 6
GAMG:  Solving for p, Initial residual = 0.177573, Final residual = 0.000997785, No Iterations 4
GAMG:  Solving for p, Initial residual = 0.0380741, Final residual = 0.000254285, No Iterations 4
GAMG:  Solving for p, Initial residual = 0.0103951, Final residual = 6.69282e-05, No Iterations 4
GAMG:  Solving for p, Initial residual = 0.00313314, Final residual = 1.82332e-05, No Iterations 4
time step continuity errors : sum local = 0.571627, global = 0.0382649, cumulative = -0.279555
smoothSolver:  Solving for omega, Initial residual = 0.406375, Final residual = 0.0136645, No Iterations 4
smoothSolver:  Solving for k, Initial residual = 0.596557, Final residual = 0.0427636, No Iterations 4
ExecutionTime = 3.75 s  ClockTime = 4 s

surfaceFieldValue massFlowInlet write:
    sum(velocity_inlet) of phi = 0

surfaceFieldValue massFlowOutlet write:
    sum(pressure_outlet) of phi = 2.07166e-06

surfaceFieldValue outletVelocity write:
    areaAverage(pressure_outlet) of U = (-0.0898659 20.4475 -0.246315)

Time = 7

smoothSolver:  Solving for Ux, Initial residual = 0.16185, Final residual = 0.00136288, No Iterations 2
smoothSolver:  Solving for Uy, Initial residual = 0.257523, Final residual = 0.00158815, No Iterations 2
smoothSolver:  Solving for Uz, Initial residual = 0.161732, Final residual = 0.00131154, No Iterations 2
GAMG:  Solving for p, Initial residual = 0.438706, Final residual = 0.00302683, No Iterations 6
GAMG:  Solving for p, Initial residual = 0.253271, Final residual = 0.0019474, No Iterations 3
GAMG:  Solving for p, Initial residual = 0.0545305, Final residual = 0.000331759, No Iterations 5
GAMG:  Solving for p, Initial residual = 0.0179582, Final residual = 0.000160669, No Iterations 3
GAMG:  Solving for p, Initial residual = 0.00481965, Final residual = 2.78242e-05, No Iterations 5
time step continuity errors : sum local = 0.553317, global = 0.0760509, cumulative = -0.203504
smoothSolver:  Solving for omega, Initial residual = 0.381439, Final residual = 0.0335251, No Iterations 2
smoothSolver:  Solving for k, Initial residual = 0.524315, Final residual = 0.0338132, No Iterations 4
ExecutionTime = 4.27 s  ClockTime = 4 s

surfaceFieldValue massFlowInlet write:
    sum(velocity_inlet) of phi = 0

surfaceFieldValue massFlowOutlet write:
    sum(pressure_outlet) of phi = 4.11739e-06

surfaceFieldValue outletVelocity write:
    areaAverage(pressure_outlet) of U = (-0.158537 5.05503 0.460324)

Time = 8

smoothSolver:  Solving for Ux, Initial residual = 0.142818, Final residual = 0.00106387, No Iterations 2
smoothSolver:  Solving for Uy, Initial residual = 0.214966, Final residual = 0.00126389, No Iterations 2
smoothSolver:  Solving for Uz, Initial residual = 0.140964, Final residual = 0.00112445, No Iterations 2
GAMG:  Solving for p, Initial residual = 0.487839, Final residual = 0.00391339, No Iterations 7
GAMG:  Solving for p, Initial residual = 0.39824, Final residual = 0.00182284, No Iterations 3
GAMG:  Solving for p, Initial residual = 0.0664628, Final residual = 0.0006496, No Iterations 3
GAMG:  Solving for p, Initial residual = 0.0183851, Final residual = 0.000124062, No Iterations 4
GAMG:  Solving for p, Initial residual = 0.00652619, Final residual = 4.85184e-05, No Iterations 3
time step continuity errors : sum local = 1.26716, global = 0.130956, cumulative = -0.0725481
smoothSolver:  Solving for omega, Initial residual = 0.325912, Final residual = 0.0241765, No Iterations 2
smoothSolver:  Solving for k, Initial residual = 0.43768, Final residual = 0.0323304, No Iterations 4
ExecutionTime = 4.88 s  ClockTime = 5 s

surfaceFieldValue massFlowInlet write:
    sum(velocity_inlet) of phi = 0

surfaceFieldValue massFlowOutlet write:
    sum(pressure_outlet) of phi = 7.08996e-06

surfaceFieldValue outletVelocity write:
    areaAverage(pressure_outlet) of U = (-0.150411 -7.68042 0.6992)

Time = 9

smoothSolver:  Solving for Ux, Initial residual = 0.134396, Final residual = 0.000905624, No Iterations 2
smoothSolver:  Solving for Uy, Initial residual = 0.158196, Final residual = 0.000948223, No Iterations 2
smoothSolver:  Solving for Uz, Initial residual = 0.129406, Final residual = 0.000935702, No Iterations 2
GAMG:  Solving for p, Initial residual = 0.545237, Final residual = 0.00320249, No Iterations 7
GAMG:  Solving for p, Initial residual = 0.382382, Final residual = 0.00320334, No Iterations 2
GAMG:  Solving for p, Initial residual = 0.051595, Final residual = 0.000280119, No Iterations 5
GAMG:  Solving for p, Initial residual = 0.0168994, Final residual = 0.000116932, No Iterations 3
GAMG:  Solving for p, Initial residual = 0.00446098, Final residual = 3.76982e-05, No Iterations 3
time step continuity errors : sum local = 1.20664, global = 0.177089, cumulative = 0.104541
smoothSolver:  Solving for omega, Initial residual = 0.253447, Final residual = 0.0247083, No Iterations 2
smoothSolver:  Solving for k, Initial residual = 0.389418, Final residual = 0.0329443, No Iterations 4
ExecutionTime = 5.34 s  ClockTime = 5 s

surfaceFieldValue massFlowInlet write:
    sum(velocity_inlet) of phi = 0

surfaceFieldValue massFlowOutlet write:
    sum(pressure_outlet) of phi = 9.58757e-06

surfaceFieldValue outletVelocity write:
    areaAverage(pressure_outlet) of U = (-0.120181 -13.2754 1.03328)

Time = 10

smoothSolver:  Solving for Ux, Initial residual = 0.130039, Final residual = 0.000823726, No Iterations 2
smoothSolver:  Solving for Uy, Initial residual = 0.121446, Final residual = 0.00072201, No Iterations 2
smoothSolver:  Solving for Uz, Initial residual = 0.119614, Final residual = 0.000762608, No Iterations 2
GAMG:  Solving for p, Initial residual = 0.584924, Final residual = 0.00375756, No Iterations 7
GAMG:  Solving for p, Initial residual = 0.325353, Final residual = 0.00289419, No Iterations 2
GAMG:  Solving for p, Initial residual = 0.043714, Final residual = 0.000247264, No Iterations 5
GAMG:  Solving for p, Initial residual = 0.0151033, Final residual = 0.00010447, No Iterations 3
GAMG:  Solving for p, Initial residual = 0.00398303, Final residual = 3.39428e-05, No Iterations 3
time step continuity errors : sum local = 1.02049, global = 0.158301, cumulative = 0.262841
smoothSolver:  Solving for omega, Initial residual = 0.211205, Final residual = 0.00589904, No Iterations 4
smoothSolver:  Solving for k, Initial residual = 0.35315, Final residual = 0.0141271, No Iterations 6
ExecutionTime = 5.75 s  ClockTime = 6 s

surfaceFieldValue massFlowInlet write:
    sum(velocity_inlet) of phi = 0

surfaceFieldValue massFlowOutlet write:
    sum(pressure_outlet) of phi = 8.57038e-06

surfaceFieldValue outletVelocity write:
    areaAverage(pressure_outlet) of U = (-0.00263631 -13.6452 1.21542)

Time = 11

smoothSolver:  Solving for Ux, Initial residual = 0.125432, Final residual = 0.000691357, No Iterations 2
smoothSolver:  Solving for Uy, Initial residual = 0.153448, Final residual = 0.00102128, No Iterations 2
smoothSolver:  Solving for Uz, Initial residual = 0.111788, Final residual = 0.000661184, No Iterations 2
GAMG:  Solving for p, Initial residual = 0.492081, Final residual = 0.00482526, No Iterations 6
GAMG:  Solving for p, Initial residual = 0.213677, Final residual = 0.00146571, No Iterations 3
GAMG:  Solving for p, Initial residual = 0.0381296, Final residual = 0.000357998, No Iterations 3
GAMG:  Solving for p, Initial residual = 0.00962963, Final residual = 4.8233e-05, No Iterations 4
GAMG:  Solving for p, Initial residual = 0.00330302, Final residual = 2.22085e-05, No Iterations 3
time step continuity errors : sum local = 0.491342, global = 0.0808881, cumulative = 0.343729
smoothSolver:  Solving for omega, Initial residual = 0.172681, Final residual = 0.00499158, No Iterations 4
smoothSolver:  Solving for k, Initial residual = 0.29508, Final residual = 0.0138551, No Iterations 6
ExecutionTime = 6.15 s  ClockTime = 6 s

surfaceFieldValue massFlowInlet write:
    sum(velocity_inlet) of phi = 0

surfaceFieldValue massFlowOutlet write:
    sum(pressure_outlet) of phi = 4.37928e-06

surfaceFieldValue outletVelocity write:
    areaAverage(pressure_outlet) of U = (-0.167314 -11.1113 1.42995)

Time = 12

smoothSolver:  Solving for Ux, Initial residual = 0.118162, Final residual = 0.000647007, No Iterations 2
smoothSolver:  Solving for Uy, Initial residual = 0.187765, Final residual = 0.00169207, No Iterations 2
smoothSolver:  Solving for Uz, Initial residual = 0.105079, Final residual = 0.000598579, No Iterations 2
GAMG:  Solving for p, Initial residual = 0.435348, Final residual = 0.00284079, No Iterations 5
GAMG:  Solving for p, Initial residual = 0.152649, Final residual = 0.00126836, No Iterations 3
GAMG:  Solving for p, Initial residual = 0.0299215, Final residual = 0.000239351, No Iterations 4
GAMG:  Solving for p, Initial residual = 0.00866005, Final residual = 4.91421e-05, No Iterations 4
GAMG:  Solving for p, Initial residual = 0.00261683, Final residual = 1.43595e-05, No Iterations 4
time step continuity errors : sum local = 0.19078, global = 0.0102384, cumulative = 0.353968
smoothSolver:  Solving for omega, Initial residual = 0.13385, Final residual = 0.00629333, No Iterations 4
smoothSolver:  Solving for k, Initial residual = 0.248328, Final residual = 0.0135538, No Iterations 6
ExecutionTime = 6.56 s  ClockTime = 7 s

surfaceFieldValue massFlowInlet write:
    sum(velocity_inlet) of phi = 0

surfaceFieldValue massFlowOutlet write:
    sum(pressure_outlet) of phi = 5.54307e-07

surfaceFieldValue outletVelocity write:
    areaAverage(pressure_outlet) of U = (-0.0620437 -6.75997 1.60335)

Time = 13

smoothSolver:  Solving for Ux, Initial residual = 0.108975, Final residual = 0.000651201, No Iterations 2
smoothSolver:  Solving for Uy, Initial residual = 0.1758, Final residual = 0.00195494, No Iterations 2
smoothSolver:  Solving for Uz, Initial residual = 0.098471, Final residual = 0.000604581, No Iterations 2
GAMG:  Solving for p, Initial residual = 0.445829, Final residual = 0.00311531, No Iterations 7
GAMG:  Solving for p, Initial residual = 0.338229, Final residual = 0.00162391, No Iterations 3
GAMG:  Solving for p, Initial residual = 0.0592752, Final residual = 0.000526947, No Iterations 3
GAMG:  Solving for p, Initial residual = 0.0158719, Final residual = 7.41847e-05, No Iterations 4
GAMG:  Solving for p, Initial residual = 0.00596249, Final residual = 3.53298e-05, No Iterations 3
time step continuity errors : sum local = 0.4574, global = -0.0899659, cumulative = 0.264002
smoothSolver:  Solving for omega, Initial residual = 0.108515, Final residual = 0.00524981, No Iterations 4
smoothSolver:  Solving for k, Initial residual = 0.184835, Final residual = 0.016999, No Iterations 4
ExecutionTime = 6.94 s  ClockTime = 7 s

surfaceFieldValue massFlowInlet write:
    sum(velocity_inlet) of phi = 0

surfaceFieldValue massFlowOutlet write:
    sum(pressure_outlet) of phi = -4.87075e-06

surfaceFieldValue outletVelocity write:
    areaAverage(pressure_outlet) of U = (-0.255703 -1.97522 1.47835)

Time = 14

smoothSolver:  Solving for Ux, Initial residual = 0.0992814, Final residual = 0.000618964, No Iterations 2
smoothSolver:  Solving for Uy, Initial residual = 0.126818, Final residual = 0.00139188, No Iterations 2
smoothSolver:  Solving for Uz, Initial residual = 0.0920873, Final residual = 0.000585393, No Iterations 2
GAMG:  Solving for p, Initial residual = 0.488676, Final residual = 0.00456855, No Iterations 7
GAMG:  Solving for p, Initial residual = 0.357336, Final residual = 0.00163244, No Iterations 3
GAMG:  Solving for p, Initial residual = 0.0563951, Final residual = 0.000424188, No Iterations 3
GAMG:  Solving for p, Initial residual = 0.0137394, Final residual = 6.99338e-05, No Iterations 4
GAMG:  Solving for p, Initial residual = 0.00498489, Final residual = 3.18816e-05, No Iterations 3
time step continuity errors : sum local = 0.518075, global = -0.0956088, cumulative = 0.168393
smoothSolver:  Solving for omega, Initial residual = 0.0828348, Final residual = 0.00720543, No Iterations 4
smoothSolver:  Solving for k, Initial residual = 0.148378, Final residual = 0.010606, No Iterations 4
ExecutionTime = 7.34 s  ClockTime = 7 s

surfaceFieldValue massFlowInlet write:
    sum(velocity_inlet) of phi = 0

surfaceFieldValue massFlowOutlet write:
    sum(pressure_outlet) of phi = -5.17626e-06

surfaceFieldValue outletVelocity write:
    areaAverage(pressure_outlet) of U = (-0.268605 1.75873 1.63434)

Time = 15

smoothSolver:  Solving for Ux, Initial residual = 0.0918022, Final residual = 0.000575871, No Iterations 2
smoothSolver:  Solving for Uy, Initial residual = 0.0806771, Final residual = 0.000576377, No Iterations 2
smoothSolver:  Solving for Uz, Initial residual = 0.0879506, Final residual = 0.000594316, No Iterations 2
GAMG:  Solving for p, Initial residual = 0.540684, Final residual = 0.00440389, No Iterations 7
GAMG:  Solving for p, Initial residual = 0.316229, Final residual = 0.00127841, No Iterations 3
GAMG:  Solving for p, Initial residual = 0.0465966, Final residual = 0.000371946, No Iterations 3
GAMG:  Solving for p, Initial residual = 0.012245, Final residual = 5.86526e-05, No Iterations 4
GAMG:  Solving for p, Initial residual = 0.00454707, Final residual = 2.26659e-05, No Iterations 3
time step continuity errors : sum local = 0.359971, global = -0.082752, cumulative = 0.0856408
smoothSolver:  Solving for omega, Initial residual = 0.0725463, Final residual = 0.00582872, No Iterations 4
smoothSolver:  Solving for k, Initial residual = 0.141689, Final residual = 0.0114634, No Iterations 4
ExecutionTime = 7.84 s  ClockTime = 8 s

surfaceFieldValue massFlowInlet write:
    sum(velocity_inlet) of phi = 0

surfaceFieldValue massFlowOutlet write:
    sum(pressure_outlet) of phi = -4.48019e-06

surfaceFieldValue outletVelocity write:
    areaAverage(pressure_outlet) of U = (-0.144425 3.77586 1.67676)

Time = 16

smoothSolver:  Solving for Ux, Initial residual = 0.085876, Final residual = 0.000556929, No Iterations 2
smoothSolver:  Solving for Uy, Initial residual = 0.106376, Final residual = 0.00136271, No Iterations 2
smoothSolver:  Solving for Uz, Initial residual = 0.083091, Final residual = 0.000566886, No Iterations 2
GAMG:  Solving for p, Initial residual = 0.469481, Final residual = 0.00294609, No Iterations 7
GAMG:  Solving for p, Initial residual = 0.214722, Final residual = 0.00113168, No Iterations 3
GAMG:  Solving for p, Initial residual = 0.0351046, Final residual = 0.000303378, No Iterations 4
GAMG:  Solving for p, Initial residual = 0.0113098, Final residual = 0.0001023, No Iterations 3
GAMG:  Solving for p, Initial residual = 0.00324459, Final residual = 2.91946e-05, No Iterations 3
time step continuity errors : sum local = 0.352649, global = 0.0255467, cumulative = 0.111187
smoothSolver:  Solving for omega, Initial residual = 0.06111, Final residual = 0.00393007, No Iterations 6
smoothSolver:  Solving for k, Initial residual = 0.136776, Final residual = 0.00681217, No Iterations 6
ExecutionTime = 8.24 s  ClockTime = 8 s

surfaceFieldValue massFlowInlet write:
    sum(velocity_inlet) of phi = 0

surfaceFieldValue massFlowOutlet write:
    sum(pressure_outlet) of phi = 1.38309e-06

surfaceFieldValue outletVelocity write:
    areaAverage(pressure_outlet) of U = (-0.0374124 3.97659 1.63158)

Time = 17

smoothSolver:  Solving for Ux, Initial residual = 0.0790757, Final residual = 0.000557173, No Iterations 2
smoothSolver:  Solving for Uy, Initial residual = 0.136655, Final residual = 0.00213795, No Iterations 2
smoothSolver:  Solving for Uz, Initial residual = 0.0780348, Final residual = 0.000576769, No Iterations 2
GAMG:  Solving for p, Initial residual = 0.412451, Final residual = 0.00254056, No Iterations 5
GAMG:  Solving for p, Initial residual = 0.144076, Final residual = 0.000974663, No Iterations 3
GAMG:  Solving for p, Initial residual = 0.0261803, Final residual = 0.000149566, No Iterations 4
GAMG:  Solving for p, Initial residual = 0.00808358, Final residual = 7.55692e-05, No Iterations 3
GAMG:  Solving for p, Initial residual = 0.00204993, Final residual = 1.05311e-05, No Iterations 4
time step continuity errors : sum local = 0.076807, global = 0.0106916, cumulative = 0.121879
smoothSolver:  Solving for omega, Initial residual = 0.0548699, Final residual = 0.00481536, No Iterations 4
smoothSolver:  Solving for k, Initial residual = 0.126032, Final residual = 0.00898353, No Iterations 6
ExecutionTime = 8.63 s  ClockTime = 9 s

surfaceFieldValue massFlowInlet write:
    sum(velocity_inlet) of phi = 0

surfaceFieldValue massFlowOutlet write:
    sum(pressure_outlet) of phi = 5.78844e-07

surfaceFieldValue outletVelocity write:
    areaAverage(pressure_outlet) of U = (0.0253106 2.84993 1.45631)

Time = 18

smoothSolver:  Solving for Ux, Initial residual = 0.0730978, Final residual = 0.000514208, No Iterations 2
smoothSolver:  Solving for Uy, Initial residual = 0.131488, Final residual = 0.00213346, No Iterations 2
smoothSolver:  Solving for Uz, Initial residual = 0.0723907, Final residual = 0.00054412, No Iterations 2
GAMG:  Solving for p, Initial residual = 0.407797, Final residual = 0.00238419, No Iterations 7
GAMG:  Solving for p, Initial residual = 0.33257, Final residual = 0.00148826, No Iterations 3
GAMG:  Solving for p, Initial residual = 0.0571026, Final residual = 0.00048751, No Iterations 3
GAMG:  Solving for p, Initial residual = 0.0153448, Final residual = 8.46163e-05, No Iterations 4
GAMG:  Solving for p, Initial residual = 0.00559513, Final residual = 3.92057e-05, No Iterations 3
time step continuity errors : sum local = 0.270276, global = 0.0122935, cumulative = 0.134173
smoothSolver:  Solving for omega, Initial residual = 0.0466805, Final residual = 0.00375045, No Iterations 6
smoothSolver:  Solving for k, Initial residual = 0.116557, Final residual = 0.00966853, No Iterations 6
ExecutionTime = 9.03 s  ClockTime = 9 s

surfaceFieldValue massFlowInlet write:
    sum(velocity_inlet) of phi = 0

surfaceFieldValue massFlowOutlet write:
    sum(pressure_outlet) of phi = 6.6557e-07

surfaceFieldValue outletVelocity write:
    areaAverage(pressure_outlet) of U = (0.16757 1.09391 1.50547)

Time = 19

smoothSolver:  Solving for Ux, Initial residual = 0.0669373, Final residual = 0.000449855, No Iterations 2
smoothSolver:  Solving for Uy, Initial residual = 0.0915753, Final residual = 0.00137426, No Iterations 2
smoothSolver:  Solving for Uz, Initial residual = 0.0676355, Final residual = 0.000484476, No Iterations 2
GAMG:  Solving for p, Initial residual = 0.440584, Final residual = 0.00397397, No Iterations 7
GAMG:  Solving for p, Initial residual = 0.347436, Final residual = 0.00157032, No Iterations 3
GAMG:  Solving for p, Initial residual = 0.0549793, Final residual = 0.000406476, No Iterations 3
GAMG:  Solving for p, Initial residual = 0.0137336, Final residual = 6.05503e-05, No Iterations 4
GAMG:  Solving for p, Initial residual = 0.00495666, Final residual = 2.91916e-05, No Iterations 3
time step continuity errors : sum local = 0.263128, global = 0.0520729, cumulative = 0.186246
smoothSolver:  Solving for omega, Initial residual = 0.0439397, Final residual = 0.00283391, No Iterations 6
smoothSolver:  Solving for k, Initial residual = 0.117861, Final residual = 0.00812827, No Iterations 8
ExecutionTime = 9.43 s  ClockTime = 9 s

surfaceFieldValue massFlowInlet write:
    sum(velocity_inlet) of phi = 0

surfaceFieldValue massFlowOutlet write:
    sum(pressure_outlet) of phi = 2.81922e-06

surfaceFieldValue outletVelocity write:
    areaAverage(pressure_outlet) of U = (0.255062 -0.620736 1.71688)

Time = 20

smoothSolver:  Solving for Ux, Initial residual = 0.0615835, Final residual = 0.000419158, No Iterations 2
smoothSolver:  Solving for Uy, Initial residual = 0.0525752, Final residual = 0.000470221, No Iterations 2
smoothSolver:  Solving for Uz, Initial residual = 0.0630898, Final residual = 0.000447137, No Iterations 2
GAMG:  Solving for p, Initial residual = 0.478117, Final residual = 0.00364842, No Iterations 7
GAMG:  Solving for p, Initial residual = 0.300639, Final residual = 0.00119276, No Iterations 3
GAMG:  Solving for p, Initial residual = 0.0446131, Final residual = 0.000358019, No Iterations 3
GAMG:  Solving for p, Initial residual = 0.0121877, Final residual = 0.000113388, No Iterations 3
GAMG:  Solving for p, Initial residual = 0.00398532, Final residual = 3.55677e-05, No Iterations 3
time step continuity errors : sum local = 0.320446, global = 0.0629985, cumulative = 0.249244
smoothSolver:  Solving for omega, Initial residual = 0.0441795, Final residual = 0.0035843, No Iterations 6
smoothSolver:  Solving for k, Initial residual = 0.121006, Final residual = 0.00938384, No Iterations 8
ExecutionTime = 9.86 s  ClockTime = 10 s

surfaceFieldValue massFlowInlet write:
    sum(velocity_inlet) of phi = 0

surfaceFieldValue massFlowOutlet write:
    sum(pressure_outlet) of phi = 3.41074e-06

surfaceFieldValue outletVelocity write:
    areaAverage(pressure_outlet) of U = (0.266684 -1.84562 1.90483)

Time = 21

smoothSolver:  Solving for Ux, Initial residual = 0.0576329, Final residual = 0.000423869, No Iterations 2
smoothSolver:  Solving for Uy, Initial residual = 0.071994, Final residual = 0.00104918, No Iterations 2
smoothSolver:  Solving for Uz, Initial residual = 0.059934, Final residual = 0.000448283, No Iterations 2
GAMG:  Solving for p, Initial residual = 0.44231, Final residual = 0.00244054, No Iterations 7
GAMG:  Solving for p, Initial residual = 0.198312, Final residual = 0.000965183, No Iterations 3
GAMG:  Solving for p, Initial residual = 0.0326049, Final residual = 0.000312556, No Iterations 3
GAMG:  Solving for p, Initial residual = 0.00999284, Final residual = 9.92185e-05, No Iterations 3
GAMG:  Solving for p, Initial residual = 0.00338696, Final residual = 3.24332e-05, No Iterations 3
time step continuity errors : sum local = 0.226562, global = 0.0443913, cumulative = 0.293635
smoothSolver:  Solving for omega, Initial residual = 0.0406326, Final residual = 0.0030089, No Iterations 6
smoothSolver:  Solving for k, Initial residual = 0.118892, Final residual = 0.0104007, No Iterations 8
ExecutionTime = 10.28 s  ClockTime = 10 s

surfaceFieldValue massFlowInlet write:
    sum(velocity_inlet) of phi = 0

surfaceFieldValue massFlowOutlet write:
    sum(pressure_outlet) of phi = 2.40334e-06

surfaceFieldValue outletVelocity write:
    areaAverage(pressure_outlet) of U = (0.367647 -2.2604 2.4886)

Time = 22

smoothSolver:  Solving for Ux, Initial residual = 0.0539921, Final residual = 0.000410661, No Iterations 2
smoothSolver:  Solving for Uy, Initial residual = 0.0932808, Final residual = 0.00156223, No Iterations 2
smoothSolver:  Solving for Uz, Initial residual = 0.0564414, Final residual = 0.000430179, No Iterations 2
GAMG:  Solving for p, Initial residual = 0.388745, Final residual = 0.00191947, No Iterations 5
GAMG:  Solving for p, Initial residual = 0.136564, Final residual = 0.00113441, No Iterations 3
GAMG:  Solving for p, Initial residual = 0.0274115, Final residual = 0.000187484, No Iterations 4
GAMG:  Solving for p, Initial residual = 0.00796366, Final residual = 4.40678e-05, No Iterations 4
GAMG:  Solving for p, Initial residual = 0.00264059, Final residual = 1.21758e-05, No Iterations 4
time step continuity errors : sum local = 0.0545142, global = 0.00403927, cumulative = 0.297675
smoothSolver:  Solving for omega, Initial residual = 0.0376462, Final residual = 0.00294285, No Iterations 6
smoothSolver:  Solving for k, Initial residual = 0.112896, Final residual = 0.0111312, No Iterations 8
ExecutionTime = 10.69 s  ClockTime = 11 s

surfaceFieldValue massFlowInlet write:
    sum(velocity_inlet) of phi = 0

surfaceFieldValue massFlowOutlet write:
    sum(pressure_outlet) of phi = 2.18686e-07

surfaceFieldValue outletVelocity write:
    areaAverage(pressure_outlet) of U = (0.395999 -1.95972 2.51081)

Time = 23

smoothSolver:  Solving for Ux, Initial residual = 0.0501738, Final residual = 0.000382561, No Iterations 2
smoothSolver:  Solving for Uy, Initial residual = 0.0881422, Final residual = 0.00148402, No Iterations 2
smoothSolver:  Solving for Uz, Initial residual = 0.0522776, Final residual = 0.000394058, No Iterations 2
GAMG:  Solving for p, Initial residual = 0.383459, Final residual = 0.00292717, No Iterations 5
GAMG:  Solving for p, Initial residual = 0.28514, Final residual = 0.00149826, No Iterations 3
GAMG:  Solving for p, Initial residual = 0.0525843, Final residual = 0.000406165, No Iterations 3
GAMG:  Solving for p, Initial residual = 0.0136392, Final residual = 5.91078e-05, No Iterations 4
GAMG:  Solving for p, Initial residual = 0.00498474, Final residual = 2.87643e-05, No Iterations 3
time step continuity errors : sum local = 0.13306, global = -0.0300562, cumulative = 0.267619
smoothSolver:  Solving for omega, Initial residual = 0.032672, Final residual = 0.00257833, No Iterations 6
smoothSolver:  Solving for k, Initial residual = 0.105797, Final residual = 0.00850866, No Iterations 10
ExecutionTime = 11.07 s  ClockTime = 13 s

surfaceFieldValue massFlowInlet write:
    sum(velocity_inlet) of phi = 0

surfaceFieldValue massFlowOutlet write:
    sum(pressure_outlet) of phi = -1.62724e-06

surfaceFieldValue outletVelocity write:
    areaAverage(pressure_outlet) of U = (0.430183 -1.17956 2.23803)

Time = 24

smoothSolver:  Solving for Ux, Initial residual = 0.0468104, Final residual = 0.00035461, No Iterations 2
smoothSolver:  Solving for Uy, Initial residual = 0.0621104, Final residual = 0.000925269, No Iterations 2
smoothSolver:  Solving for Uz, Initial residual = 0.0488816, Final residual = 0.000356377, No Iterations 2
GAMG:  Solving for p, Initial residual = 0.402831, Final residual = 0.00325424, No Iterations 7
GAMG:  Solving for p, Initial residual = 0.301668, Final residual = 0.00149511, No Iterations 3
GAMG:  Solving for p, Initial residual = 0.0495378, Final residual = 0.000365461, No Iterations 3
GAMG:  Solving for p, Initial residual = 0.0120171, Final residual = 0.000109197, No Iterations 3
GAMG:  Solving for p, Initial residual = 0.00331845, Final residual = 1.69469e-05, No Iterations 4
time step continuity errors : sum local = 0.0980058, global = -0.0165965, cumulative = 0.251022
smoothSolver:  Solving for omega, Initial residual = 0.0304829, Final residual = 0.00238903, No Iterations 6
smoothSolver:  Solving for k, Initial residual = 0.100595, Final residual = 0.00892138, No Iterations 10
ExecutionTime = 11.6 s  ClockTime = 14 s

surfaceFieldValue massFlowInlet write:
    sum(velocity_inlet) of phi = 0

surfaceFieldValue massFlowOutlet write:
    sum(pressure_outlet) of phi = -8.98535e-07

surfaceFieldValue outletVelocity write:
    areaAverage(pressure_outlet) of U = (0.433716 -0.311203 2.12948)

Time = 25

smoothSolver:  Solving for Ux, Initial residual = 0.0445391, Final residual = 0.000352761, No Iterations 2
smoothSolver:  Solving for Uy, Initial residual = 0.0379204, Final residual = 0.000360301, No Iterations 2
smoothSolver:  Solving for Uz, Initial residual = 0.0470977, Final residual = 0.000356114, No Iterations 2
GAMG:  Solving for p, Initial residual = 0.42193, Final residual = 0.00317376, No Iterations 7
GAMG:  Solving for p, Initial residual = 0.260048, Final residual = 0.00119201, No Iterations 3
GAMG:  Solving for p, Initial residual = 0.0412746, Final residual = 0.000284254, No Iterations 3
GAMG:  Solving for p, Initial residual = 0.0102126, Final residual = 4.21921e-05, No Iterations 4
GAMG:  Solving for p, Initial residual = 0.00374222, Final residual = 2.05284e-05, No Iterations 3
time step continuity errors : sum local = 0.117013, global = -0.0263419, cumulative = 0.22468
smoothSolver:  Solving for omega, Initial residual = 0.0278654, Final residual = 0.00211348, No Iterations 6
smoothSolver:  Solving for k, Initial residual = 0.0957568, Final residual = 0.00928026, No Iterations 10
ExecutionTime = 12.02 s  ClockTime = 14 s

surfaceFieldValue massFlowInlet write:
    sum(velocity_inlet) of phi = 0

surfaceFieldValue massFlowOutlet write:
    sum(pressure_outlet) of phi = -1.42615e-06

surfaceFieldValue outletVelocity write:
    areaAverage(pressure_outlet) of U = (0.445867 0.361459 2.14024)

Time = 26

smoothSolver:  Solving for Ux, Initial residual = 0.0427484, Final residual = 0.000348479, No Iterations 2
smoothSolver:  Solving for Uy, Initial residual = 0.0503754, Final residual = 0.000700633, No Iterations 2
smoothSolver:  Solving for Uz, Initial residual = 0.0462439, Final residual = 0.000355313, No Iterations 2
GAMG:  Solving for p, Initial residual = 0.370539, Final residual = 0.0036767, No Iterations 5
GAMG:  Solving for p, Initial residual = 0.159305, Final residual = 0.00123534, No Iterations 3
GAMG:  Solving for p, Initial residual = 0.0345408, Final residual = 0.000159509, No Iterations 4
GAMG:  Solving for p, Initial residual = 0.0121969, Final residual = 7.0474e-05, No Iterations 3
GAMG:  Solving for p, Initial residual = 0.0029886, Final residual = 2.79716e-05, No Iterations 3
time step continuity errors : sum local = 0.126914, global = -0.0257945, cumulative = 0.198886
smoothSolver:  Solving for omega, Initial residual = 0.0263277, Final residual = 0.00188583, No Iterations 6
smoothSolver:  Solving for k, Initial residual = 0.0892262, Final residual = 0.00717317, No Iterations 12
ExecutionTime = 12.43 s  ClockTime = 14 s

surfaceFieldValue massFlowInlet write:
    sum(velocity_inlet) of phi = 0

surfaceFieldValue massFlowOutlet write:
    sum(pressure_outlet) of phi = -1.39651e-06

surfaceFieldValue outletVelocity write:
    areaAverage(pressure_outlet) of U = (0.464584 0.652313 2.18721)

Time = 27

smoothSolver:  Solving for Ux, Initial residual = 0.0408119, Final residual = 0.000331178, No Iterations 2
smoothSolver:  Solving for Uy, Initial residual = 0.062751, Final residual = 0.000975563, No Iterations 2
smoothSolver:  Solving for Uz, Initial residual = 0.0446274, Final residual = 0.000349616, No Iterations 2
GAMG:  Solving for p, Initial residual = 0.339396, Final residual = 0.00159672, No Iterations 5
GAMG:  Solving for p, Initial residual = 0.123035, Final residual = 0.000884258, No Iterations 3
GAMG:  Solving for p, Initial residual = 0.0254645, Final residual = 0.000236979, No Iterations 3
GAMG:  Solving for p, Initial residual = 0.00659664, Final residual = 4.28251e-05, No Iterations 4
GAMG:  Solving for p, Initial residual = 0.00212581, Final residual = 1.02992e-05, No Iterations 4
time step continuity errors : sum local = 0.0326458, global = 0.00559606, cumulative = 0.204482
smoothSolver:  Solving for omega, Initial residual = 0.0237316, Final residual = 0.00154322, No Iterations 6
smoothSolver:  Solving for k, Initial residual = 0.0850065, Final residual = 0.00726897, No Iterations 12
ExecutionTime = 12.88 s  ClockTime = 15 s

surfaceFieldValue massFlowInlet write:
    sum(velocity_inlet) of phi = 0

surfaceFieldValue massFlowOutlet write:
    sum(pressure_outlet) of phi = 3.0297e-07

surfaceFieldValue outletVelocity write:
    areaAverage(pressure_outlet) of U = (0.479454 0.577728 2.18234)

Time = 28

smoothSolver:  Solving for Ux, Initial residual = 0.0386922, Final residual = 0.000308308, No Iterations 2
smoothSolver:  Solving for Uy, Initial residual = 0.0595285, Final residual = 0.000903922, No Iterations 2
smoothSolver:  Solving for Uz, Initial residual = 0.0426089, Final residual = 0.000337496, No Iterations 2
GAMG:  Solving for p, Initial residual = 0.338679, Final residual = 0.00235052, No Iterations 5
GAMG:  Solving for p, Initial residual = 0.24616, Final residual = 0.00115625, No Iterations 3
GAMG:  Solving for p, Initial residual = 0.0445069, Final residual = 0.000408709, No Iterations 3
GAMG:  Solving for p, Initial residual = 0.0130629, Final residual = 0.000110326, No Iterations 3
GAMG:  Solving for p, Initial residual = 0.00384595, Final residual = 2.56959e-05, No Iterations 4
time step continuity errors : sum local = 0.083173, global = -0.00501958, cumulative = 0.199462
smoothSolver:  Solving for omega, Initial residual = 0.0226543, Final residual = 0.00141256, No Iterations 6
smoothSolver:  Solving for k, Initial residual = 0.0807271, Final residual = 0.00704768, No Iterations 12
ExecutionTime = 13.32 s  ClockTime = 15 s

surfaceFieldValue massFlowInlet write:
    sum(velocity_inlet) of phi = 0

surfaceFieldValue massFlowOutlet write:
    sum(pressure_outlet) of phi = -2.7176e-07

surfaceFieldValue outletVelocity write:
    areaAverage(pressure_outlet) of U = (0.473414 0.251819 2.07327)

Time = 29

smoothSolver:  Solving for Ux, Initial residual = 0.0367516, Final residual = 0.000283882, No Iterations 2
smoothSolver:  Solving for Uy, Initial residual = 0.0439833, Final residual = 0.000565009, No Iterations 2
smoothSolver:  Solving for Uz, Initial residual = 0.0401784, Final residual = 0.000316132, No Iterations 2
GAMG:  Solving for p, Initial residual = 0.351821, Final residual = 0.00225143, No Iterations 7
GAMG:  Solving for p, Initial residual = 0.264071, Final residual = 0.00118907, No Iterations 3
GAMG:  Solving for p, Initial residual = 0.0434528, Final residual = 0.000267081, No Iterations 3
GAMG:  Solving for p, Initial residual = 0.0104026, Final residual = 9.0049e-05, No Iterations 3
GAMG:  Solving for p, Initial residual = 0.00336021, Final residual = 3.04364e-05, No Iterations 3
time step continuity errors : sum local = 0.118631, global = 0.0241033, cumulative = 0.223565
smoothSolver:  Solving for omega, Initial residual = 0.0212688, Final residual = 0.00207931, No Iterations 4
smoothSolver:  Solving for k, Initial residual = 0.080526, Final residual = 0.0076995, No Iterations 12
ExecutionTime = 13.72 s  ClockTime = 16 s

surfaceFieldValue massFlowInlet write:
    sum(velocity_inlet) of phi = 0

surfaceFieldValue massFlowOutlet write:
    sum(pressure_outlet) of phi = 1.30495e-06

surfaceFieldValue outletVelocity write:
    areaAverage(pressure_outlet) of U = (0.502761 -0.155303 1.90273)

Time = 30

smoothSolver:  Solving for Ux, Initial residual = 0.0359324, Final residual = 0.000268297, No Iterations 2
smoothSolver:  Solving for Uy, Initial residual = 0.0313614, Final residual = 0.000281141, No Iterations 2
smoothSolver:  Solving for Uz, Initial residual = 0.0385409, Final residual = 0.000297763, No Iterations 2
GAMG:  Solving for p, Initial residual = 0.36043, Final residual = 0.00207147, No Iterations 7
GAMG:  Solving for p, Initial residual = 0.225131, Final residual = 0.000948084, No Iterations 3
GAMG:  Solving for p, Initial residual = 0.0360984, Final residual = 0.000270362, No Iterations 3
GAMG:  Solving for p, Initial residual = 0.00941123, Final residual = 5.38718e-05, No Iterations 4
GAMG:  Solving for p, Initial residual = 0.00348478, Final residual = 2.6175e-05, No Iterations 3
time step continuity errors : sum local = 0.101536, global = 0.00467977, cumulative = 0.228245
smoothSolver:  Solving for omega, Initial residual = 0.0218504, Final residual = 0.00152953, No Iterations 6
smoothSolver:  Solving for k, Initial residual = 0.0773414, Final residual = 0.00727348, No Iterations 12
ExecutionTime = 14.22 s  ClockTime = 16 s

surfaceFieldValue massFlowInlet write:
    sum(velocity_inlet) of phi = 0

surfaceFieldValue massFlowOutlet write:
    sum(pressure_outlet) of phi = 2.53363e-07

surfaceFieldValue outletVelocity write:
    areaAverage(pressure_outlet) of U = (0.523495 -0.49898 1.83424)

Time = 31

smoothSolver:  Solving for Ux, Initial residual = 0.0352681, Final residual = 0.000260665, No Iterations 2
smoothSolver:  Solving for Uy, Initial residual = 0.0376306, Final residual = 0.00044819, No Iterations 2
smoothSolver:  Solving for Uz, Initial residual = 0.0374236, Final residual = 0.000295592, No Iterations 2
GAMG:  Solving for p, Initial residual = 0.344447, Final residual = 0.00259947, No Iterations 5
GAMG:  Solving for p, Initial residual = 0.138223, Final residual = 0.00101306, No Iterations 3
GAMG:  Solving for p, Initial residual = 0.0282609, Final residual = 0.000204749, No Iterations 4
GAMG:  Solving for p, Initial residual = 0.0105909, Final residual = 8.23997e-05, No Iterations 3
GAMG:  Solving for p, Initial residual = 0.00290169, Final residual = 2.20549e-05, No Iterations 3
time step continuity errors : sum local = 0.071689, global = 0.0155421, cumulative = 0.243787
smoothSolver:  Solving for omega, Initial residual = 0.0196807, Final residual = 0.00184478, No Iterations 4
smoothSolver:  Solving for k, Initial residual = 0.0782039, Final residual = 0.00769774, No Iterations 12
ExecutionTime = 14.62 s  ClockTime = 17 s

surfaceFieldValue massFlowInlet write:
    sum(velocity_inlet) of phi = 0

surfaceFieldValue massFlowOutlet write:
    sum(pressure_outlet) of phi = 8.41446e-07

surfaceFieldValue outletVelocity write:
    areaAverage(pressure_outlet) of U = (0.584519 -0.664 1.81539)

Time = 32

smoothSolver:  Solving for Ux, Initial residual = 0.0343832, Final residual = 0.000249943, No Iterations 2
smoothSolver:  Solving for Uy, Initial residual = 0.0443428, Final residual = 0.000586697, No Iterations 2
smoothSolver:  Solving for Uz, Initial residual = 0.0367148, Final residual = 0.000285571, No Iterations 2
GAMG:  Solving for p, Initial residual = 0.322762, Final residual = 0.00128824, No Iterations 5
GAMG:  Solving for p, Initial residual = 0.109634, Final residual = 0.000743251, No Iterations 3
GAMG:  Solving for p, Initial residual = 0.0216897, Final residual = 0.00021568, No Iterations 3
GAMG:  Solving for p, Initial residual = 0.0059143, Final residual = 3.10679e-05, No Iterations 4
GAMG:  Solving for p, Initial residual = 0.00189739, Final residual = 1.0246e-05, No Iterations 4
time step continuity errors : sum local = 0.0258438, global = -0.000579978, cumulative = 0.243207
smoothSolver:  Solving for omega, Initial residual = 0.0201859, Final residual = 0.00139858, No Iterations 6
smoothSolver:  Solving for k, Initial residual = 0.0763791, Final residual = 0.00709678, No Iterations 12
ExecutionTime = 15.04 s  ClockTime = 17 s

surfaceFieldValue massFlowInlet write:
    sum(velocity_inlet) of phi = 0

surfaceFieldValue massFlowOutlet write:
    sum(pressure_outlet) of phi = -3.13999e-08

surfaceFieldValue outletVelocity write:
    areaAverage(pressure_outlet) of U = (0.580387 -0.649243 1.74928)

Time = 33

smoothSolver:  Solving for Ux, Initial residual = 0.0333177, Final residual = 0.000236086, No Iterations 2
smoothSolver:  Solving for Uy, Initial residual = 0.0421987, Final residual = 0.000533374, No Iterations 2
smoothSolver:  Solving for Uz, Initial residual = 0.0359536, Final residual = 0.000282172, No Iterations 2
GAMG:  Solving for p, Initial residual = 0.320471, Final residual = 0.00175819, No Iterations 6
GAMG:  Solving for p, Initial residual = 0.181978, Final residual = 0.00102033, No Iterations 3
GAMG:  Solving for p, Initial residual = 0.0342625, Final residual = 0.000269249, No Iterations 3
GAMG:  Solving for p, Initial residual = 0.00875814, Final residual = 8.6146e-05, No Iterations 3
GAMG:  Solving for p, Initial residual = 0.00248501, Final residual = 1.67032e-05, No Iterations 4
time step continuity errors : sum local = 0.0442527, global = -0.00824669, cumulative = 0.23496
smoothSolver:  Solving for omega, Initial residual = 0.0183047, Final residual = 0.00156999, No Iterations 4
smoothSolver:  Solving for k, Initial residual = 0.076926, Final residual = 0.00725745, No Iterations 12
ExecutionTime = 15.44 s  ClockTime = 17 s

surfaceFieldValue massFlowInlet write:
    sum(velocity_inlet) of phi = 0

surfaceFieldValue massFlowOutlet write:
    sum(pressure_outlet) of phi = -4.46475e-07

surfaceFieldValue outletVelocity write:
    areaAverage(pressure_outlet) of U = (0.608357 -0.481425 1.71332)

Time = 34

smoothSolver:  Solving for Ux, Initial residual = 0.0326412, Final residual = 0.000235371, No Iterations 2
smoothSolver:  Solving for Uy, Initial residual = 0.0336419, Final residual = 0.00035264, No Iterations 2
smoothSolver:  Solving for Uz, Initial residual = 0.0354717, Final residual = 0.000275725, No Iterations 2
GAMG:  Solving for p, Initial residual = 0.327487, Final residual = 0.00322515, No Iterations 6
GAMG:  Solving for p, Initial residual = 0.196361, Final residual = 0.00191517, No Iterations 2
GAMG:  Solving for p, Initial residual = 0.0311033, Final residual = 0.000302055, No Iterations 4
GAMG:  Solving for p, Initial residual = 0.0126933, Final residual = 0.000111493, No Iterations 3
GAMG:  Solving for p, Initial residual = 0.00380995, Final residual = 3.17058e-05, No Iterations 4
time step continuity errors : sum local = 0.0937993, global = 0.00797229, cumulative = 0.242933
smoothSolver:  Solving for omega, Initial residual = 0.0186011, Final residual = 0.00125395, No Iterations 6
smoothSolver:  Solving for k, Initial residual = 0.0728021, Final residual = 0.00657358, No Iterations 12
ExecutionTime = 15.94 s  ClockTime = 18 s

surfaceFieldValue massFlowInlet write:
    sum(velocity_inlet) of phi = 0

surfaceFieldValue massFlowOutlet write:
    sum(pressure_outlet) of phi = 4.31619e-07

surfaceFieldValue outletVelocity write:
    areaAverage(pressure_outlet) of U = (0.598201 -0.25836 1.66765)

Time = 35

smoothSolver:  Solving for Ux, Initial residual = 0.0321681, Final residual = 0.000231627, No Iterations 2
smoothSolver:  Solving for Uy, Initial residual = 0.0273568, Final residual = 0.000222156, No Iterations 2
smoothSolver:  Solving for Uz, Initial residual = 0.0353807, Final residual = 0.000272729, No Iterations 2
GAMG:  Solving for p, Initial residual = 0.324692, Final residual = 0.00306078, No Iterations 5
GAMG:  Solving for p, Initial residual = 0.165129, Final residual = 0.00106677, No Iterations 3
GAMG:  Solving for p, Initial residual = 0.0329805, Final residual = 0.000170556, No Iterations 4
GAMG:  Solving for p, Initial residual = 0.0116284, Final residual = 6.63553e-05, No Iterations 3
GAMG:  Solving for p, Initial residual = 0.00278108, Final residual = 2.65971e-05, No Iterations 3
time step continuity errors : sum local = 0.0775822, global = 0.00568061, cumulative = 0.248613
smoothSolver:  Solving for omega, Initial residual = 0.0171653, Final residual = 0.00142249, No Iterations 4
smoothSolver:  Solving for k, Initial residual = 0.0723322, Final residual = 0.00660278, No Iterations 12
ExecutionTime = 16.35 s  ClockTime = 18 s

surfaceFieldValue massFlowInlet write:
    sum(velocity_inlet) of phi = 0

surfaceFieldValue massFlowOutlet write:
    sum(pressure_outlet) of phi = 3.07548e-07

surfaceFieldValue outletVelocity write:
    areaAverage(pressure_outlet) of U = (0.581241 -0.0575351 1.56186)

Time = 36

smoothSolver:  Solving for Ux, Initial residual = 0.0316118, Final residual = 0.000229988, No Iterations 2
smoothSolver:  Solving for Uy, Initial residual = 0.0303247, Final residual = 0.000296996, No Iterations 2
smoothSolver:  Solving for Uz, Initial residual = 0.0352844, Final residual = 0.000263007, No Iterations 2
GAMG:  Solving for p, Initial residual = 0.304389, Final residual = 0.00302575, No Iterations 4
GAMG:  Solving for p, Initial residual = 0.109244, Final residual = 0.00092326, No Iterations 3
GAMG:  Solving for p, Initial residual = 0.0228797, Final residual = 0.000136484, No Iterations 4
GAMG:  Solving for p, Initial residual = 0.0073483, Final residual = 6.22879e-05, No Iterations 3
GAMG:  Solving for p, Initial residual = 0.00225504, Final residual = 1.84217e-05, No Iterations 4
time step continuity errors : sum local = 0.0472409, global = 0.00327692, cumulative = 0.25189
smoothSolver:  Solving for omega, Initial residual = 0.0175133, Final residual = 0.00111417, No Iterations 6
smoothSolver:  Solving for k, Initial residual = 0.0683591, Final residual = 0.00586697, No Iterations 12
ExecutionTime = 16.75 s  ClockTime = 19 s

surfaceFieldValue massFlowInlet write:
    sum(velocity_inlet) of phi = 0

surfaceFieldValue massFlowOutlet write:
    sum(pressure_outlet) of phi = 1.77412e-07

surfaceFieldValue outletVelocity write:
    areaAverage(pressure_outlet) of U = (0.557812 0.0515963 1.51597)

Time = 37

smoothSolver:  Solving for Ux, Initial residual = 0.0309456, Final residual = 0.0002187, No Iterations 2
smoothSolver:  Solving for Uy, Initial residual = 0.033267, Final residual = 0.00035396, No Iterations 2
smoothSolver:  Solving for Uz, Initial residual = 0.0348468, Final residual = 0.000251892, No Iterations 2
GAMG:  Solving for p, Initial residual = 0.292621, Final residual = 0.00234912, No Iterations 4
GAMG:  Solving for p, Initial residual = 0.0887686, Final residual = 0.000775532, No Iterations 3
GAMG:  Solving for p, Initial residual = 0.0182283, Final residual = 0.0001052, No Iterations 4
GAMG:  Solving for p, Initial residual = 0.0054786, Final residual = 2.73419e-05, No Iterations 4
GAMG:  Solving for p, Initial residual = 0.00190411, Final residual = 1.46859e-05, No Iterations 3
time step continuity errors : sum local = 0.0319409, global = 0.00235735, cumulative = 0.254248
smoothSolver:  Solving for omega, Initial residual = 0.0158885, Final residual = 0.00123973, No Iterations 4
smoothSolver:  Solving for k, Initial residual = 0.0675291, Final residual = 0.00582353, No Iterations 12
ExecutionTime = 17.15 s  ClockTime = 19 s

surfaceFieldValue massFlowInlet write:
    sum(velocity_inlet) of phi = 0

surfaceFieldValue massFlowOutlet write:
    sum(pressure_outlet) of phi = 1.27627e-07

surfaceFieldValue outletVelocity write:
    areaAverage(pressure_outlet) of U = (0.528165 0.0689722 1.4179)

Time = 38

smoothSolver:  Solving for Ux, Initial residual = 0.0302148, Final residual = 0.000210107, No Iterations 2
smoothSolver:  Solving for Uy, Initial residual = 0.0320947, Final residual = 0.000327469, No Iterations 2
smoothSolver:  Solving for Uz, Initial residual = 0.0343651, Final residual = 0.000240044, No Iterations 2
GAMG:  Solving for p, Initial residual = 0.290892, Final residual = 0.00286884, No Iterations 4
GAMG:  Solving for p, Initial residual = 0.135437, Final residual = 0.00115217, No Iterations 3
GAMG:  Solving for p, Initial residual = 0.0324328, Final residual = 0.000307318, No Iterations 3
GAMG:  Solving for p, Initial residual = 0.00931369, Final residual = 9.09623e-05, No Iterations 4
GAMG:  Solving for p, Initial residual = 0.0035868, Final residual = 1.65619e-05, No Iterations 4
time step continuity errors : sum local = 0.0354451, global = 0.00659803, cumulative = 0.260846
smoothSolver:  Solving for omega, Initial residual = 0.0161154, Final residual = 0.000981023, No Iterations 6
smoothSolver:  Solving for k, Initial residual = 0.0649793, Final residual = 0.0052277, No Iterations 12
ExecutionTime = 17.55 s  ClockTime = 20 s

surfaceFieldValue massFlowInlet write:
    sum(velocity_inlet) of phi = 0

surfaceFieldValue massFlowOutlet write:
    sum(pressure_outlet) of phi = 3.57217e-07

surfaceFieldValue outletVelocity write:
    areaAverage(pressure_outlet) of U = (0.505118 -0.00466912 1.38889)

Time = 39

smoothSolver:  Solving for Ux, Initial residual = 0.0296796, Final residual = 0.000200549, No Iterations 2
smoothSolver:  Solving for Uy, Initial residual = 0.0279048, Final residual = 0.000244848, No Iterations 2
smoothSolver:  Solving for Uz, Initial residual = 0.033706, Final residual = 0.000230534, No Iterations 2
GAMG:  Solving for p, Initial residual = 0.293773, Final residual = 0.00154557, No Iterations 5
GAMG:  Solving for p, Initial residual = 0.156244, Final residual = 0.00134584, No Iterations 2
GAMG:  Solving for p, Initial residual = 0.0245267, Final residual = 0.00012874, No Iterations 4
GAMG:  Solving for p, Initial residual = 0.00951932, Final residual = 6.46875e-05, No Iterations 3
GAMG:  Solving for p, Initial residual = 0.00246222, Final residual = 1.51971e-05, No Iterations 4
time step continuity errors : sum local = 0.0351387, global = -0.0013018, cumulative = 0.259544
smoothSolver:  Solving for omega, Initial residual = 0.014887, Final residual = 0.00118444, No Iterations 4
smoothSolver:  Solving for k, Initial residual = 0.0646751, Final residual = 0.00535676, No Iterations 12
ExecutionTime = 17.95 s  ClockTime = 20 s

surfaceFieldValue massFlowInlet write:
    sum(velocity_inlet) of phi = 0

surfaceFieldValue massFlowOutlet write:
    sum(pressure_outlet) of phi = -7.04791e-08

surfaceFieldValue outletVelocity write:
    areaAverage(pressure_outlet) of U = (0.496667 -0.115568 1.32396)

Time = 40

smoothSolver:  Solving for Ux, Initial residual = 0.0291561, Final residual = 0.000193731, No Iterations 2
smoothSolver:  Solving for Uy, Initial residual = 0.0249907, Final residual = 0.000193119, No Iterations 2
smoothSolver:  Solving for Uz, Initial residual = 0.0332855, Final residual = 0.000226413, No Iterations 2
GAMG:  Solving for p, Initial residual = 0.295568, Final residual = 0.00125108, No Iterations 5
GAMG:  Solving for p, Initial residual = 0.135212, Final residual = 0.00135156, No Iterations 2
GAMG:  Solving for p, Initial residual = 0.0225173, Final residual = 0.00017603, No Iterations 4
GAMG:  Solving for p, Initial residual = 0.0084676, Final residual = 7.47148e-05, No Iterations 3
GAMG:  Solving for p, Initial residual = 0.00234516, Final residual = 1.34524e-05, No Iterations 4
time step continuity errors : sum local = 0.0309972, global = 0.00535773, cumulative = 0.264902
smoothSolver:  Solving for omega, Initial residual = 0.0153598, Final residual = 0.000921802, No Iterations 6
smoothSolver:  Solving for k, Initial residual = 0.0622525, Final residual = 0.00496678, No Iterations 12
ExecutionTime = 18.37 s  ClockTime = 20 s

surfaceFieldValue massFlowInlet write:
    sum(velocity_inlet) of phi = 0

surfaceFieldValue massFlowOutlet write:
    sum(pressure_outlet) of phi = 2.90067e-07

surfaceFieldValue outletVelocity write:
    areaAverage(pressure_outlet) of U = (0.495578 -0.225077 1.33177)

Time = 41

smoothSolver:  Solving for Ux, Initial residual = 0.0287911, Final residual = 0.000189485, No Iterations 2
smoothSolver:  Solving for Uy, Initial residual = 0.0258971, Final residual = 0.000215755, No Iterations 2
smoothSolver:  Solving for Uz, Initial residual = 0.0328362, Final residual = 0.000224296, No Iterations 2
GAMG:  Solving for p, Initial residual = 0.29361, Final residual = 0.0024797, No Iterations 4
GAMG:  Solving for p, Initial residual = 0.0945802, Final residual = 0.000757873, No Iterations 3
GAMG:  Solving for p, Initial residual = 0.0192234, Final residual = 0.000185499, No Iterations 3
GAMG:  Solving for p, Initial residual = 0.00536677, Final residual = 3.37985e-05, No Iterations 4
GAMG:  Solving for p, Initial residual = 0.00188514, Final residual = 8.98661e-06, No Iterations 4
time step continuity errors : sum local = 0.0191136, global = 0.00372607, cumulative = 0.268628
smoothSolver:  Solving for omega, Initial residual = 0.0144749, Final residual = 0.00116754, No Iterations 4
smoothSolver:  Solving for k, Initial residual = 0.062917, Final residual = 0.00510281, No Iterations 12
ExecutionTime = 18.84 s  ClockTime = 21 s

surfaceFieldValue massFlowInlet write:
    sum(velocity_inlet) of phi = 0

surfaceFieldValue massFlowOutlet write:
    sum(pressure_outlet) of phi = 2.01729e-07

surfaceFieldValue outletVelocity write:
    areaAverage(pressure_outlet) of U = (0.457705 -0.290158 1.29053)

Time = 42

smoothSolver:  Solving for Ux, Initial residual = 0.0286134, Final residual = 0.00018401, No Iterations 2
smoothSolver:  Solving for Uy, Initial residual = 0.0271042, Final residual = 0.000238311, No Iterations 2
smoothSolver:  Solving for Uz, Initial residual = 0.032416, Final residual = 0.000220949, No Iterations 2
GAMG:  Solving for p, Initial residual = 0.286035, Final residual = 0.00176522, No Iterations 4
GAMG:  Solving for p, Initial residual = 0.0788101, Final residual = 0.000554559, No Iterations 3
GAMG:  Solving for p, Initial residual = 0.0158972, Final residual = 7.96449e-05, No Iterations 4
GAMG:  Solving for p, Initial residual = 0.00482412, Final residual = 3.15712e-05, No Iterations 3
GAMG:  Solving for p, Initial residual = 0.00132896, Final residual = 8.5478e-06, No Iterations 4
time step continuity errors : sum local = 0.0164155, global = -0.00147436, cumulative = 0.267153
smoothSolver:  Solving for omega, Initial residual = 0.0149381, Final residual = 0.000900271, No Iterations 6
smoothSolver:  Solving for k, Initial residual = 0.0612684, Final residual = 0.00598595, No Iterations 10
ExecutionTime = 19.32 s  ClockTime = 21 s

surfaceFieldValue massFlowInlet write:
    sum(velocity_inlet) of phi = 0

surfaceFieldValue massFlowOutlet write:
    sum(pressure_outlet) of phi = -7.98216e-08

surfaceFieldValue outletVelocity write:
    areaAverage(pressure_outlet) of U = (0.405999 -0.308665 1.30018)

Time = 43

smoothSolver:  Solving for Ux, Initial residual = 0.0283927, Final residual = 0.000182192, No Iterations 2
smoothSolver:  Solving for Uy, Initial residual = 0.0264185, Final residual = 0.000225049, No Iterations 2
smoothSolver:  Solving for Uz, Initial residual = 0.0321874, Final residual = 0.000221145, No Iterations 2
GAMG:  Solving for p, Initial residual = 0.283011, Final residual = 0.00232652, No Iterations 4
GAMG:  Solving for p, Initial residual = 0.100271, Final residual = 0.000792674, No Iterations 3
GAMG:  Solving for p, Initial residual = 0.0224135, Final residual = 0.00019305, No Iterations 4
GAMG:  Solving for p, Initial residual = 0.00770737, Final residual = 7.42567e-05, No Iterations 3
GAMG:  Solving for p, Initial residual = 0.00219502, Final residual = 1.2553e-05, No Iterations 4
time step continuity errors : sum local = 0.0242465, global = -0.00430888, cumulative = 0.262844
smoothSolver:  Solving for omega, Initial residual = 0.0140957, Final residual = 0.00119325, No Iterations 4
smoothSolver:  Solving for k, Initial residual = 0.0616543, Final residual = 0.0048742, No Iterations 12
ExecutionTime = 19.79 s  ClockTime = 22 s

surfaceFieldValue massFlowInlet write:
    sum(velocity_inlet) of phi = 0

surfaceFieldValue massFlowOutlet write:
    sum(pressure_outlet) of phi = -2.33282e-07

surfaceFieldValue outletVelocity write:
    areaAverage(pressure_outlet) of U = (0.37549 -0.290187 1.25802)

Time = 44

smoothSolver:  Solving for Ux, Initial residual = 0.0283379, Final residual = 0.00018159, No Iterations 2
smoothSolver:  Solving for Uy, Initial residual = 0.0244776, Final residual = 0.000189542, No Iterations 2
smoothSolver:  Solving for Uz, Initial residual = 0.0321666, Final residual = 0.000219776, No Iterations 2
GAMG:  Solving for p, Initial residual = 0.283087, Final residual = 0.00245119, No Iterations 4
GAMG:  Solving for p, Initial residual = 0.108366, Final residual = 0.000802295, No Iterations 3
GAMG:  Solving for p, Initial residual = 0.0239197, Final residual = 0.000188925, No Iterations 4
GAMG:  Solving for p, Initial residual = 0.00803684, Final residual = 7.03126e-05, No Iterations 3
GAMG:  Solving for p, Initial residual = 0.00225688, Final residual = 1.17327e-05, No Iterations 4
time step continuity errors : sum local = 0.0235414, global = -0.00437597, cumulative = 0.258468
smoothSolver:  Solving for omega, Initial residual = 0.0146388, Final residual = 0.000892085, No Iterations 6
smoothSolver:  Solving for k, Initial residual = 0.0597856, Final residual = 0.00577543, No Iterations 10
ExecutionTime = 20.27 s  ClockTime = 22 s

surfaceFieldValue massFlowInlet write:
    sum(velocity_inlet) of phi = 0

surfaceFieldValue massFlowOutlet write:
    sum(pressure_outlet) of phi = -2.36915e-07

surfaceFieldValue outletVelocity write:
    areaAverage(pressure_outlet) of U = (0.356987 -0.253286 1.24145)

Time = 45

smoothSolver:  Solving for Ux, Initial residual = 0.0284117, Final residual = 0.000182401, No Iterations 2
smoothSolver:  Solving for Uy, Initial residual = 0.0232494, Final residual = 0.000168909, No Iterations 2
smoothSolver:  Solving for Uz, Initial residual = 0.0321414, Final residual = 0.00022291, No Iterations 2
GAMG:  Solving for p, Initial residual = 0.281224, Final residual = 0.00239611, No Iterations 4
GAMG:  Solving for p, Initial residual = 0.101023, Final residual = 0.000682694, No Iterations 3
GAMG:  Solving for p, Initial residual = 0.0203278, Final residual = 0.000173556, No Iterations 4
GAMG:  Solving for p, Initial residual = 0.00680909, Final residual = 6.36881e-05, No Iterations 3
GAMG:  Solving for p, Initial residual = 0.00200603, Final residual = 1.01886e-05, No Iterations 4
time step continuity errors : sum local = 0.0202196, global = -0.00380542, cumulative = 0.254663
smoothSolver:  Solving for omega, Initial residual = 0.013581, Final residual = 0.00114812, No Iterations 4
smoothSolver:  Solving for k, Initial residual = 0.0610218, Final residual = 0.00472339, No Iterations 12
ExecutionTime = 20.75 s  ClockTime = 23 s

surfaceFieldValue massFlowInlet write:
    sum(velocity_inlet) of phi = 0

surfaceFieldValue massFlowOutlet write:
    sum(pressure_outlet) of phi = -2.06025e-07

surfaceFieldValue outletVelocity write:
    areaAverage(pressure_outlet) of U = (0.391485 -0.176433 1.11072)

Time = 46

smoothSolver:  Solving for Ux, Initial residual = 0.0283004, Final residual = 0.000181471, No Iterations 2
smoothSolver:  Solving for Uy, Initial residual = 0.0234625, Final residual = 0.000174598, No Iterations 2
smoothSolver:  Solving for Uz, Initial residual = 0.0321494, Final residual = 0.000220754, No Iterations 2
GAMG:  Solving for p, Initial residual = 0.275383, Final residual = 0.00216605, No Iterations 4
GAMG:  Solving for p, Initial residual = 0.0808294, Final residual = 0.000623815, No Iterations 3
GAMG:  Solving for p, Initial residual = 0.0165099, Final residual = 0.000164587, No Iterations 3
GAMG:  Solving for p, Initial residual = 0.00466738, Final residual = 2.82195e-05, No Iterations 4
GAMG:  Solving for p, Initial residual = 0.00164998, Final residual = 7.57063e-06, No Iterations 4
time step continuity errors : sum local = 0.0142519, global = -0.0028132, cumulative = 0.25185
smoothSolver:  Solving for omega, Initial residual = 0.0140816, Final residual = 0.000903413, No Iterations 6
smoothSolver:  Solving for k, Initial residual = 0.0589179, Final residual = 0.00542882, No Iterations 10
ExecutionTime = 21.24 s  ClockTime = 23 s

surfaceFieldValue massFlowInlet write:
    sum(velocity_inlet) of phi = 0

surfaceFieldValue massFlowOutlet write:
    sum(pressure_outlet) of phi = -1.52307e-07

surfaceFieldValue outletVelocity write:
    areaAverage(pressure_outlet) of U = (0.357692 -0.11325 1.06806)

Time = 47

smoothSolver:  Solving for Ux, Initial residual = 0.0281178, Final residual = 0.000177979, No Iterations 2
smoothSolver:  Solving for Uy, Initial residual = 0.0239363, Final residual = 0.000182259, No Iterations 2
smoothSolver:  Solving for Uz, Initial residual = 0.0321404, Final residual = 0.000219178, No Iterations 2
GAMG:  Solving for p, Initial residual = 0.272503, Final residual = 0.00152583, No Iterations 4
GAMG:  Solving for p, Initial residual = 0.0726799, Final residual = 0.000452394, No Iterations 3
GAMG:  Solving for p, Initial residual = 0.0139412, Final residual = 0.000138476, No Iterations 3
GAMG:  Solving for p, Initial residual = 0.00389379, Final residual = 1.83212e-05, No Iterations 4
GAMG:  Solving for p, Initial residual = 0.0012824, Final residual = 8.65821e-06, No Iterations 3
time step continuity errors : sum local = 0.0152288, global = 0.000780775, cumulative = 0.252631
smoothSolver:  Solving for omega, Initial residual = 0.013132, Final residual = 0.00112055, No Iterations 4
smoothSolver:  Solving for k, Initial residual = 0.0593247, Final residual = 0.00566112, No Iterations 10
ExecutionTime = 21.67 s  ClockTime = 24 s

surfaceFieldValue massFlowInlet write:
    sum(velocity_inlet) of phi = 0

surfaceFieldValue massFlowOutlet write:
    sum(pressure_outlet) of phi = 4.22711e-08

surfaceFieldValue outletVelocity write:
    areaAverage(pressure_outlet) of U = (0.320445 -0.0731548 0.996216)

Time = 48

smoothSolver:  Solving for Ux, Initial residual = 0.0278552, Final residual = 0.00017257, No Iterations 2
smoothSolver:  Solving for Uy, Initial residual = 0.0237084, Final residual = 0.000175314, No Iterations 2
smoothSolver:  Solving for Uz, Initial residual = 0.0323361, Final residual = 0.000219844, No Iterations 2
GAMG:  Solving for p, Initial residual = 0.272785, Final residual = 0.00209373, No Iterations 4
GAMG:  Solving for p, Initial residual = 0.0859401, Final residual = 0.000615617, No Iterations 3
GAMG:  Solving for p, Initial residual = 0.0173671, Final residual = 0.000168439, No Iterations 3
GAMG:  Solving for p, Initial residual = 0.00482469, Final residual = 2.55358e-05, No Iterations 4
GAMG:  Solving for p, Initial residual = 0.00164162, Final residual = 1.62026e-05, No Iterations 3
time step continuity errors : sum local = 0.0275129, global = 6.19083e-05, cumulative = 0.252693
smoothSolver:  Solving for omega, Initial residual = 0.0135045, Final residual = 0.00087838, No Iterations 6
smoothSolver:  Solving for k, Initial residual = 0.0581327, Final residual = 0.00515177, No Iterations 10
ExecutionTime = 22.08 s  ClockTime = 24 s

surfaceFieldValue massFlowInlet write:
    sum(velocity_inlet) of phi = 0

surfaceFieldValue massFlowOutlet write:
    sum(pressure_outlet) of phi = 3.35171e-09

surfaceFieldValue outletVelocity write:
    areaAverage(pressure_outlet) of U = (0.279696 -0.0732965 0.924859)

Time = 49

smoothSolver:  Solving for Ux, Initial residual = 0.0275416, Final residual = 0.00017232, No Iterations 2
smoothSolver:  Solving for Uy, Initial residual = 0.0230315, Final residual = 0.000162882, No Iterations 2
smoothSolver:  Solving for Uz, Initial residual = 0.0326374, Final residual = 0.000222167, No Iterations 2
GAMG:  Solving for p, Initial residual = 0.274191, Final residual = 0.00204826, No Iterations 4
GAMG:  Solving for p, Initial residual = 0.0897263, Final residual = 0.000692235, No Iterations 3
GAMG:  Solving for p, Initial residual = 0.0191905, Final residual = 0.000165169, No Iterations 4
GAMG:  Solving for p, Initial residual = 0.00647419, Final residual = 6.3496e-05, No Iterations 3
GAMG:  Solving for p, Initial residual = 0.00192968, Final residual = 9.33911e-06, No Iterations 4
time step continuity errors : sum local = 0.0162706, global = 0.00324618, cumulative = 0.255939
smoothSolver:  Solving for omega, Initial residual = 0.0129076, Final residual = 0.00110394, No Iterations 4
smoothSolver:  Solving for k, Initial residual = 0.0588135, Final residual = 0.00537815, No Iterations 10
ExecutionTime = 22.54 s  ClockTime = 24 s

surfaceFieldValue massFlowInlet write:
    sum(velocity_inlet) of phi = 0

surfaceFieldValue massFlowOutlet write:
    sum(pressure_outlet) of phi = 1.75748e-07

surfaceFieldValue outletVelocity write:
    areaAverage(pressure_outlet) of U = (0.24015 -0.0957788 0.907898)

Time = 50

smoothSolver:  Solving for Ux, Initial residual = 0.0272774, Final residual = 0.000170218, No Iterations 2
smoothSolver:  Solving for Uy, Initial residual = 0.0224937, Final residual = 0.000155107, No Iterations 2
smoothSolver:  Solving for Uz, Initial residual = 0.0328873, Final residual = 0.000222561, No Iterations 2
GAMG:  Solving for p, Initial residual = 0.27569, Final residual = 0.00203008, No Iterations 4
GAMG:  Solving for p, Initial residual = 0.0846115, Final residual = 0.000687093, No Iterations 3
GAMG:  Solving for p, Initial residual = 0.0180193, Final residual = 0.000137935, No Iterations 4
GAMG:  Solving for p, Initial residual = 0.00584666, Final residual = 2.28578e-05, No Iterations 4
GAMG:  Solving for p, Initial residual = 0.00184452, Final residual = 1.55173e-05, No Iterations 3
time step continuity errors : sum local = 0.0270935, global = -0.000438877, cumulative = 0.2555
smoothSolver:  Solving for omega, Initial residual = 0.0135439, Final residual = 0.00086759, No Iterations 6
smoothSolver:  Solving for k, Initial residual = 0.0582243, Final residual = 0.00491286, No Iterations 10
ExecutionTime = 23.13 s  ClockTime = 25 s

surfaceFieldValue massFlowInlet write:
    sum(velocity_inlet) of phi = 0

surfaceFieldValue massFlowOutlet write:
    sum(pressure_outlet) of phi = -2.37608e-08

surfaceFieldValue outletVelocity write:
    areaAverage(pressure_outlet) of U = (0.204085 -0.12722 0.766571)

Time = 51

smoothSolver:  Solving for Ux, Initial residual = 0.0270568, Final residual = 0.000168564, No Iterations 2
smoothSolver:  Solving for Uy, Initial residual = 0.0224652, Final residual = 0.000156559, No Iterations 2
smoothSolver:  Solving for Uz, Initial residual = 0.0331624, Final residual = 0.000221805, No Iterations 2
GAMG:  Solving for p, Initial residual = 0.27601, Final residual = 0.00197407, No Iterations 4
GAMG:  Solving for p, Initial residual = 0.0748456, Final residual = 0.000563471, No Iterations 3
GAMG:  Solving for p, Initial residual = 0.0150291, Final residual = 6.67915e-05, No Iterations 4
GAMG:  Solving for p, Initial residual = 0.00440046, Final residual = 3.5792e-05, No Iterations 3
GAMG:  Solving for p, Initial residual = 0.00124338, Final residual = 7.52247e-06, No Iterations 4
time step continuity errors : sum local = 0.0128455, global = 0.00170422, cumulative = 0.257204
smoothSolver:  Solving for omega, Initial residual = 0.0127964, Final residual = 0.00110589, No Iterations 4
smoothSolver:  Solving for k, Initial residual = 0.0592473, Final residual = 0.00519219, No Iterations 10
ExecutionTime = 23.86 s  ClockTime = 26 s

surfaceFieldValue massFlowInlet write:
    sum(velocity_inlet) of phi = 0

surfaceFieldValue massFlowOutlet write:
    sum(pressure_outlet) of phi = 9.22664e-08

surfaceFieldValue outletVelocity write:
    areaAverage(pressure_outlet) of U = (0.190494 -0.147549 0.729069)

Time = 52

smoothSolver:  Solving for Ux, Initial residual = 0.02696, Final residual = 0.000166762, No Iterations 2
smoothSolver:  Solving for Uy, Initial residual = 0.022571, Final residual = 0.000158399, No Iterations 2
smoothSolver:  Solving for Uz, Initial residual = 0.0332556, Final residual = 0.000223929, No Iterations 2
GAMG:  Solving for p, Initial residual = 0.274668, Final residual = 0.00131115, No Iterations 4
GAMG:  Solving for p, Initial residual = 0.0711536, Final residual = 0.000390379, No Iterations 3
GAMG:  Solving for p, Initial residual = 0.0131368, Final residual = 0.000123389, No Iterations 3
GAMG:  Solving for p, Initial residual = 0.00363354, Final residual = 1.82063e-05, No Iterations 4
GAMG:  Solving for p, Initial residual = 0.00120805, Final residual = 8.12004e-06, No Iterations 3
time step continuity errors : sum local = 0.0134012, global = 0.000526517, cumulative = 0.257731
smoothSolver:  Solving for omega, Initial residual = 0.0135389, Final residual = 0.000875016, No Iterations 6
smoothSolver:  Solving for k, Initial residual = 0.0581239, Final residual = 0.00483604, No Iterations 10
ExecutionTime = 24.71 s  ClockTime = 27 s

surfaceFieldValue massFlowInlet write:
    sum(velocity_inlet) of phi = 0

surfaceFieldValue massFlowOutlet write:
    sum(pressure_outlet) of phi = 2.85056e-08

surfaceFieldValue outletVelocity write:
    areaAverage(pressure_outlet) of U = (0.193516 -0.155449 0.625215)

Time = 53

smoothSolver:  Solving for Ux, Initial residual = 0.0269591, Final residual = 0.000167004, No Iterations 2
smoothSolver:  Solving for Uy, Initial residual = 0.0224112, Final residual = 0.000155958, No Iterations 2
smoothSolver:  Solving for Uz, Initial residual = 0.0333033, Final residual = 0.00022309, No Iterations 2
GAMG:  Solving for p, Initial residual = 0.272952, Final residual = 0.00180931, No Iterations 4
GAMG:  Solving for p, Initial residual = 0.0752656, Final residual = 0.000580556, No Iterations 3
GAMG:  Solving for p, Initial residual = 0.0150743, Final residual = 5.74772e-05, No Iterations 4
GAMG:  Solving for p, Initial residual = 0.00431652, Final residual = 3.9266e-05, No Iterations 3
GAMG:  Solving for p, Initial residual = 0.00126008, Final residual = 7.12447e-06, No Iterations 4
time step continuity errors : sum local = 0.0115895, global = -0.00145666, cumulative = 0.256274
smoothSolver:  Solving for omega, Initial residual = 0.012894, Final residual = 0.00111594, No Iterations 4
smoothSolver:  Solving for k, Initial residual = 0.0594717, Final residual = 0.00519213, No Iterations 10
ExecutionTime = 25.39 s  ClockTime = 27 s

surfaceFieldValue massFlowInlet write:
    sum(velocity_inlet) of phi = 0

surfaceFieldValue massFlowOutlet write:
    sum(pressure_outlet) of phi = -7.88633e-08

surfaceFieldValue outletVelocity write:
    areaAverage(pressure_outlet) of U = (0.187703 -0.148544 0.560307)

Time = 54

smoothSolver:  Solving for Ux, Initial residual = 0.0269097, Final residual = 0.000167331, No Iterations 2
smoothSolver:  Solving for Uy, Initial residual = 0.0220155, Final residual = 0.000147757, No Iterations 2
smoothSolver:  Solving for Uz, Initial residual = 0.0332573, Final residual = 0.000224287, No Iterations 2
GAMG:  Solving for p, Initial residual = 0.272263, Final residual = 0.00217588, No Iterations 4
GAMG:  Solving for p, Initial residual = 0.0779341, Final residual = 0.000622817, No Iterations 3
GAMG:  Solving for p, Initial residual = 0.0156732, Final residual = 7.43326e-05, No Iterations 4
GAMG:  Solving for p, Initial residual = 0.00458608, Final residual = 2.23225e-05, No Iterations 4
[...]
GAMG:  Solving for p, Initial residual = 0.264556, Final residual = 0.0011394, No Iterations 4
GAMG:  Solving for p, Initial residual = 0.0649748, Final residual = 0.000315216, No Iterations 3
GAMG:  Solving for p, Initial residual = 0.0117994, Final residual = 8.99516e-05, No Iterations 3
GAMG:  Solving for p, Initial residual = 0.00317681, Final residual = 2.84443e-05, No Iterations 3
GAMG:  Solving for p, Initial residual = 0.00104586, Final residual = 9.93252e-06, No Iterations 3
time step continuity errors : sum local = 0.0114149, global = 7.62391e-05, cumulative = 0.262042
smoothSolver:  Solving for omega, Initial residual = 0.0136719, Final residual = 0.00133987, No Iterations 4
smoothSolver:  Solving for k, Initial residual = 0.0573379, Final residual = 0.00439833, No Iterations 10
ExecutionTime = 42.68 s  ClockTime = 44 s

surfaceFieldValue massFlowInlet write:
    sum(velocity_inlet) of phi = 0

surfaceFieldValue massFlowOutlet write:
    sum(pressure_outlet) of phi = 4.12758e-09

surfaceFieldValue outletVelocity write:
    areaAverage(pressure_outlet) of U = (0.874708 -0.000194496 -0.295405)

Time = 88

smoothSolver:  Solving for Ux, Initial residual = 0.0232251, Final residual = 0.000134957, No Iterations 2
smoothSolver:  Solving for Uy, Initial residual = 0.0188992, Final residual = 0.000106352, No Iterations 2
smoothSolver:  Solving for Uz, Initial residual = 0.0344054, Final residual = 0.000214069, No Iterations 2
GAMG:  Solving for p, Initial residual = 0.265159, Final residual = 0.00115838, No Iterations 4
GAMG:  Solving for p, Initial residual = 0.0648247, Final residual = 0.00031298, No Iterations 3
GAMG:  Solving for p, Initial residual = 0.011808, Final residual = 9.07374e-05, No Iterations 3
GAMG:  Solving for p, Initial residual = 0.00316351, Final residual = 3.03376e-05, No Iterations 3
GAMG:  Solving for p, Initial residual = 0.00104417, Final residual = 5.48321e-06, No Iterations 4
time step continuity errors : sum local = 0.00622181, global = 0.000424726, cumulative = 0.262467
smoothSolver:  Solving for omega, Initial residual = 0.0136919, Final residual = 0.00134538, No Iterations 4
smoothSolver:  Solving for k, Initial residual = 0.0579478, Final residual = 0.00437421, No Iterations 10
ExecutionTime = 43.12 s  ClockTime = 44 s

surfaceFieldValue massFlowInlet write:
    sum(velocity_inlet) of phi = 0

surfaceFieldValue massFlowOutlet write:
    sum(pressure_outlet) of phi = 2.29946e-08

surfaceFieldValue outletVelocity write:
    areaAverage(pressure_outlet) of U = (0.917547 -0.000816575 -0.318428)

Time = 89

smoothSolver:  Solving for Ux, Initial residual = 0.0230787, Final residual = 0.00013449, No Iterations 2
smoothSolver:  Solving for Uy, Initial residual = 0.0188302, Final residual = 0.000107151, No Iterations 2
smoothSolver:  Solving for Uz, Initial residual = 0.0343476, Final residual = 0.00021416, No Iterations 2
GAMG:  Solving for p, Initial residual = 0.265232, Final residual = 0.00115516, No Iterations 4
GAMG:  Solving for p, Initial residual = 0.0646983, Final residual = 0.000305325, No Iterations 3
GAMG:  Solving for p, Initial residual = 0.0117861, Final residual = 9.13096e-05, No Iterations 3
GAMG:  Solving for p, Initial residual = 0.00317602, Final residual = 1.56613e-05, No Iterations 4
GAMG:  Solving for p, Initial residual = 0.00109777, Final residual = 6.64817e-06, No Iterations 3
time step continuity errors : sum local = 0.00745893, global = 0.000339824, cumulative = 0.262807
smoothSolver:  Solving for omega, Initial residual = 0.0137167, Final residual = 0.00135179, No Iterations 4
smoothSolver:  Solving for k, Initial residual = 0.0583268, Final residual = 0.00438463, No Iterations 10
ExecutionTime = 43.57 s  ClockTime = 44 s

surfaceFieldValue massFlowInlet write:
    sum(velocity_inlet) of phi = 0

surfaceFieldValue massFlowOutlet write:
    sum(pressure_outlet) of phi = 1.8398e-08

surfaceFieldValue outletVelocity write:
    areaAverage(pressure_outlet) of U = (0.973482 -0.000203892 -0.347092)

Time = 90

smoothSolver:  Solving for Ux, Initial residual = 0.0229483, Final residual = 0.00013132, No Iterations 2
smoothSolver:  Solving for Uy, Initial residual = 0.0186708, Final residual = 0.000105618, No Iterations 2
smoothSolver:  Solving for Uz, Initial residual = 0.034327, Final residual = 0.000211512, No Iterations 2
GAMG:  Solving for p, Initial residual = 0.265767, Final residual = 0.00113166, No Iterations 4
GAMG:  Solving for p, Initial residual = 0.0644601, Final residual = 0.000296889, No Iterations 3
GAMG:  Solving for p, Initial residual = 0.0117288, Final residual = 9.31086e-05, No Iterations 3
GAMG:  Solving for p, Initial residual = 0.00317382, Final residual = 1.56201e-05, No Iterations 4
GAMG:  Solving for p, Initial residual = 0.0011011, Final residual = 6.79108e-06, No Iterations 3
time step continuity errors : sum local = 0.00753919, global = 0.000307737, cumulative = 0.263114
smoothSolver:  Solving for omega, Initial residual = 0.0136571, Final residual = 0.0013406, No Iterations 4
smoothSolver:  Solving for k, Initial residual = 0.0584712, Final residual = 0.00440993, No Iterations 10
ExecutionTime = 44 s  ClockTime = 45 s

surfaceFieldValue massFlowInlet write:
    sum(velocity_inlet) of phi = 0

surfaceFieldValue massFlowOutlet write:
    sum(pressure_outlet) of phi = 1.66609e-08

surfaceFieldValue outletVelocity write:
    areaAverage(pressure_outlet) of U = (1.03382 -0.00120493 -0.387518)

Time = 91

smoothSolver:  Solving for Ux, Initial residual = 0.0228274, Final residual = 0.000133722, No Iterations 2
smoothSolver:  Solving for Uy, Initial residual = 0.0185275, Final residual = 0.00010507, No Iterations 2
smoothSolver:  Solving for Uz, Initial residual = 0.0343115, Final residual = 0.000210095, No Iterations 2
GAMG:  Solving for p, Initial residual = 0.265076, Final residual = 0.00110074, No Iterations 4
GAMG:  Solving for p, Initial residual = 0.0640335, Final residual = 0.0002885, No Iterations 3
GAMG:  Solving for p, Initial residual = 0.0116057, Final residual = 9.24815e-05, No Iterations 3
GAMG:  Solving for p, Initial residual = 0.00312085, Final residual = 1.46401e-05, No Iterations 4
GAMG:  Solving for p, Initial residual = 0.0010674, Final residual = 6.52417e-06, No Iterations 3
time step continuity errors : sum local = 0.00716625, global = 0.000294527, cumulative = 0.263409
smoothSolver:  Solving for omega, Initial residual = 0.0138103, Final residual = 0.00134335, No Iterations 4
smoothSolver:  Solving for k, Initial residual = 0.0585188, Final residual = 0.00442523, No Iterations 10
ExecutionTime = 44.43 s  ClockTime = 47 s

surfaceFieldValue massFlowInlet write:
    sum(velocity_inlet) of phi = 0

surfaceFieldValue massFlowOutlet write:
    sum(pressure_outlet) of phi = 1.59457e-08

surfaceFieldValue outletVelocity write:
    areaAverage(pressure_outlet) of U = (1.06172 -0.00118072 -0.412709)

Time = 92

smoothSolver:  Solving for Ux, Initial residual = 0.022791, Final residual = 0.000133666, No Iterations 2
smoothSolver:  Solving for Uy, Initial residual = 0.0183694, Final residual = 0.000103553, No Iterations 2
smoothSolver:  Solving for Uz, Initial residual = 0.0342132, Final residual = 0.000208938, No Iterations 2
GAMG:  Solving for p, Initial residual = 0.265902, Final residual = 0.00109077, No Iterations 4
GAMG:  Solving for p, Initial residual = 0.0635884, Final residual = 0.000292435, No Iterations 3
GAMG:  Solving for p, Initial residual = 0.0114691, Final residual = 9.14875e-05, No Iterations 3
GAMG:  Solving for p, Initial residual = 0.00305613, Final residual = 1.4348e-05, No Iterations 4
GAMG:  Solving for p, Initial residual = 0.00103022, Final residual = 6.32433e-06, No Iterations 3
time step continuity errors : sum local = 0.0068697, global = 0.000286407, cumulative = 0.263695
smoothSolver:  Solving for omega, Initial residual = 0.0136407, Final residual = 0.00136207, No Iterations 4
smoothSolver:  Solving for k, Initial residual = 0.0582615, Final residual = 0.00439769, No Iterations 10
ExecutionTime = 44.87 s  ClockTime = 48 s

surfaceFieldValue massFlowInlet write:
    sum(velocity_inlet) of phi = 0

surfaceFieldValue massFlowOutlet write:
    sum(pressure_outlet) of phi = 1.5506e-08

surfaceFieldValue outletVelocity write:
    areaAverage(pressure_outlet) of U = (1.08931 0.0016689 -0.445558)

Time = 93

smoothSolver:  Solving for Ux, Initial residual = 0.0227865, Final residual = 0.000134066, No Iterations 2
smoothSolver:  Solving for Uy, Initial residual = 0.0182233, Final residual = 0.000102976, No Iterations 2
smoothSolver:  Solving for Uz, Initial residual = 0.0340737, Final residual = 0.000209801, No Iterations 2
GAMG:  Solving for p, Initial residual = 0.267132, Final residual = 0.00108287, No Iterations 4
GAMG:  Solving for p, Initial residual = 0.0633774, Final residual = 0.000311117, No Iterations 3
GAMG:  Solving for p, Initial residual = 0.0113909, Final residual = 9.45569e-05, No Iterations 3
GAMG:  Solving for p, Initial residual = 0.00304505, Final residual = 1.54661e-05, No Iterations 4
GAMG:  Solving for p, Initial residual = 0.00103802, Final residual = 6.40591e-06, No Iterations 3
time step continuity errors : sum local = 0.00690114, global = 0.000272744, cumulative = 0.263968
smoothSolver:  Solving for omega, Initial residual = 0.0135041, Final residual = 0.00133595, No Iterations 4
smoothSolver:  Solving for k, Initial residual = 0.0575204, Final residual = 0.00434902, No Iterations 10
ExecutionTime = 45.32 s  ClockTime = 48 s

surfaceFieldValue massFlowInlet write:
    sum(velocity_inlet) of phi = 0

surfaceFieldValue massFlowOutlet write:
    sum(pressure_outlet) of phi = 1.47664e-08

surfaceFieldValue outletVelocity write:
    areaAverage(pressure_outlet) of U = (1.11459 0.00476707 -0.471247)

Time = 94

smoothSolver:  Solving for Ux, Initial residual = 0.0227244, Final residual = 0.00012894, No Iterations 2
smoothSolver:  Solving for Uy, Initial residual = 0.0180575, Final residual = 0.000100883, No Iterations 2
smoothSolver:  Solving for Uz, Initial residual = 0.0338928, Final residual = 0.000206486, No Iterations 2
GAMG:  Solving for p, Initial residual = 0.267318, Final residual = 0.00108023, No Iterations 4
GAMG:  Solving for p, Initial residual = 0.0635617, Final residual = 0.00033272, No Iterations 3
GAMG:  Solving for p, Initial residual = 0.0114842, Final residual = 0.000100862, No Iterations 3
GAMG:  Solving for p, Initial residual = 0.00311713, Final residual = 1.96554e-05, No Iterations 4
GAMG:  Solving for p, Initial residual = 0.00111297, Final residual = 7.66858e-06, No Iterations 3
time step continuity errors : sum local = 0.00818236, global = 0.000600005, cumulative = 0.264568
smoothSolver:  Solving for omega, Initial residual = 0.0135923, Final residual = 0.0013197, No Iterations 4
smoothSolver:  Solving for k, Initial residual = 0.0567092, Final residual = 0.00425829, No Iterations 10
ExecutionTime = 45.8 s  ClockTime = 49 s

surfaceFieldValue massFlowInlet write:
    sum(velocity_inlet) of phi = 0

surfaceFieldValue massFlowOutlet write:
    sum(pressure_outlet) of phi = 3.24842e-08

surfaceFieldValue outletVelocity write:
    areaAverage(pressure_outlet) of U = (1.14989 0.00708708 -0.49983)

Time = 95

smoothSolver:  Solving for Ux, Initial residual = 0.0226819, Final residual = 0.000130226, No Iterations 2
smoothSolver:  Solving for Uy, Initial residual = 0.01791, Final residual = 0.000100265, No Iterations 2
smoothSolver:  Solving for Uz, Initial residual = 0.0337532, Final residual = 0.000203733, No Iterations 2
GAMG:  Solving for p, Initial residual = 0.26718, Final residual = 0.00107223, No Iterations 4
GAMG:  Solving for p, Initial residual = 0.0633982, Final residual = 0.000338481, No Iterations 3
GAMG:  Solving for p, Initial residual = 0.0115453, Final residual = 0.00010597, No Iterations 3
GAMG:  Solving for p, Initial residual = 0.00318427, Final residual = 2.37434e-05, No Iterations 4
GAMG:  Solving for p, Initial residual = 0.00118697, Final residual = 8.95786e-06, No Iterations 3
time step continuity errors : sum local = 0.00948865, global = 0.000866791, cumulative = 0.265435
smoothSolver:  Solving for omega, Initial residual = 0.0133737, Final residual = 0.00130748, No Iterations 4
smoothSolver:  Solving for k, Initial residual = 0.0557759, Final residual = 0.0055431, No Iterations 8
ExecutionTime = 46.25 s  ClockTime = 49 s

surfaceFieldValue massFlowInlet write:
    sum(velocity_inlet) of phi = 0

surfaceFieldValue massFlowOutlet write:
    sum(pressure_outlet) of phi = 4.6928e-08

surfaceFieldValue outletVelocity write:
    areaAverage(pressure_outlet) of U = (1.18324 0.00667341 -0.525666)

Time = 96

smoothSolver:  Solving for Ux, Initial residual = 0.0226639, Final residual = 0.000129547, No Iterations 2
smoothSolver:  Solving for Uy, Initial residual = 0.0177825, Final residual = 9.8375e-05, No Iterations 2
smoothSolver:  Solving for Uz, Initial residual = 0.0336094, Final residual = 0.000202936, No Iterations 2
GAMG:  Solving for p, Initial residual = 0.266355, Final residual = 0.00105691, No Iterations 4
GAMG:  Solving for p, Initial residual = 0.0629534, Final residual = 0.000332371, No Iterations 3
GAMG:  Solving for p, Initial residual = 0.0115538, Final residual = 0.000106475, No Iterations 3
GAMG:  Solving for p, Initial residual = 0.00320173, Final residual = 2.37568e-05, No Iterations 4
GAMG:  Solving for p, Initial residual = 0.00120141, Final residual = 9.21783e-06, No Iterations 3
time step continuity errors : sum local = 0.00968578, global = 0.000902804, cumulative = 0.266338
smoothSolver:  Solving for omega, Initial residual = 0.0131355, Final residual = 0.00130464, No Iterations 4
smoothSolver:  Solving for k, Initial residual = 0.0552072, Final residual = 0.00428327, No Iterations 10
ExecutionTime = 46.68 s  ClockTime = 49 s

surfaceFieldValue massFlowInlet write:
    sum(velocity_inlet) of phi = 0

surfaceFieldValue massFlowOutlet write:
    sum(pressure_outlet) of phi = 4.88778e-08

surfaceFieldValue outletVelocity write:
    areaAverage(pressure_outlet) of U = (1.21041 0.00414614 -0.549659)

Time = 97

smoothSolver:  Solving for Ux, Initial residual = 0.0225863, Final residual = 0.000132041, No Iterations 2
smoothSolver:  Solving for Uy, Initial residual = 0.0176241, Final residual = 9.92451e-05, No Iterations 2
smoothSolver:  Solving for Uz, Initial residual = 0.0334237, Final residual = 0.000204234, No Iterations 2
GAMG:  Solving for p, Initial residual = 0.264991, Final residual = 0.00263134, No Iterations 3
GAMG:  Solving for p, Initial residual = 0.0616076, Final residual = 0.000465416, No Iterations 3
GAMG:  Solving for p, Initial residual = 0.0124224, Final residual = 6.71333e-05, No Iterations 4
GAMG:  Solving for p, Initial residual = 0.00357581, Final residual = 2.56533e-05, No Iterations 3
GAMG:  Solving for p, Initial residual = 0.00108405, Final residual = 9.33818e-06, No Iterations 4
time step continuity errors : sum local = 0.00971927, global = 0.00049851, cumulative = 0.266836
smoothSolver:  Solving for omega, Initial residual = 0.0133384, Final residual = 0.0013134, No Iterations 4
smoothSolver:  Solving for k, Initial residual = 0.0542225, Final residual = 0.00423482, No Iterations 10
ExecutionTime = 47.09 s  ClockTime = 50 s

surfaceFieldValue massFlowInlet write:
    sum(velocity_inlet) of phi = 0

surfaceFieldValue massFlowOutlet write:
    sum(pressure_outlet) of phi = 2.69893e-08

surfaceFieldValue outletVelocity write:
    areaAverage(pressure_outlet) of U = (1.22743 0.00204472 -0.584821)

Time = 98

smoothSolver:  Solving for Ux, Initial residual = 0.0225406, Final residual = 0.000128238, No Iterations 2
smoothSolver:  Solving for Uy, Initial residual = 0.017494, Final residual = 9.70294e-05, No Iterations 2
smoothSolver:  Solving for Uz, Initial residual = 0.0334817, Final residual = 0.000206636, No Iterations 2
GAMG:  Solving for p, Initial residual = 0.26413, Final residual = 0.00104688, No Iterations 4
GAMG:  Solving for p, Initial residual = 0.0622212, Final residual = 0.000307179, No Iterations 3
GAMG:  Solving for p, Initial residual = 0.0113848, Final residual = 9.76253e-05, No Iterations 3
GAMG:  Solving for p, Initial residual = 0.00309299, Final residual = 1.72679e-05, No Iterations 4
GAMG:  Solving for p, Initial residual = 0.00109158, Final residual = 7.94424e-06, No Iterations 3
time step continuity errors : sum local = 0.00819737, global = 0.000519497, cumulative = 0.267356
smoothSolver:  Solving for omega, Initial residual = 0.013364, Final residual = 0.00129802, No Iterations 4
smoothSolver:  Solving for k, Initial residual = 0.0541655, Final residual = 0.00428732, No Iterations 10
ExecutionTime = 47.5 s  ClockTime = 50 s

surfaceFieldValue massFlowInlet write:
    sum(velocity_inlet) of phi = 0

surfaceFieldValue massFlowOutlet write:
    sum(pressure_outlet) of phi = 2.81255e-08

surfaceFieldValue outletVelocity write:
    areaAverage(pressure_outlet) of U = (1.24277 0.00128167 -0.617055)

Time = 99

smoothSolver:  Solving for Ux, Initial residual = 0.0224792, Final residual = 0.00013107, No Iterations 2
smoothSolver:  Solving for Uy, Initial residual = 0.0174108, Final residual = 9.77905e-05, No Iterations 2
smoothSolver:  Solving for Uz, Initial residual = 0.0334715, Final residual = 0.000207516, No Iterations 2
GAMG:  Solving for p, Initial residual = 0.263176, Final residual = 0.00105533, No Iterations 4
GAMG:  Solving for p, Initial residual = 0.0617859, Final residual = 0.000297574, No Iterations 3
GAMG:  Solving for p, Initial residual = 0.0112652, Final residual = 9.06387e-05, No Iterations 3
GAMG:  Solving for p, Initial residual = 0.00300596, Final residual = 1.44855e-05, No Iterations 4
GAMG:  Solving for p, Initial residual = 0.00101931, Final residual = 6.93268e-06, No Iterations 3
time step continuity errors : sum local = 0.00708093, global = 0.000218297, cumulative = 0.267574
smoothSolver:  Solving for omega, Initial residual = 0.0132457, Final residual = 0.00130871, No Iterations 4
smoothSolver:  Solving for k, Initial residual = 0.0534021, Final residual = 0.00429022, No Iterations 10
ExecutionTime = 47.87 s  ClockTime = 51 s

surfaceFieldValue massFlowInlet write:
    sum(velocity_inlet) of phi = 0

surfaceFieldValue massFlowOutlet write:
    sum(pressure_outlet) of phi = 1.18186e-08

surfaceFieldValue outletVelocity write:
    areaAverage(pressure_outlet) of U = (1.24478 0.00143742 -0.64496)

Time = 100

smoothSolver:  Solving for Ux, Initial residual = 0.0224001, Final residual = 0.000129136, No Iterations 2
smoothSolver:  Solving for Uy, Initial residual = 0.0172647, Final residual = 9.71827e-05, No Iterations 2
smoothSolver:  Solving for Uz, Initial residual = 0.0333852, Final residual = 0.000208078, No Iterations 2
GAMG:  Solving for p, Initial residual = 0.262071, Final residual = 0.00105993, No Iterations 4
GAMG:  Solving for p, Initial residual = 0.061312, Final residual = 0.000285178, No Iterations 3
GAMG:  Solving for p, Initial residual = 0.0110694, Final residual = 8.49804e-05, No Iterations 3
GAMG:  Solving for p, Initial residual = 0.00291238, Final residual = 2.87903e-05, No Iterations 3
GAMG:  Solving for p, Initial residual = 0.000933859, Final residual = 4.51118e-06, No Iterations 4
time step continuity errors : sum local = 0.00455663, global = 0.000987415, cumulative = 0.268561
smoothSolver:  Solving for omega, Initial residual = 0.0132076, Final residual = 0.00130615, No Iterations 4
smoothSolver:  Solving for k, Initial residual = 0.0525409, Final residual = 0.00426057, No Iterations 10
ExecutionTime = 48.61 s  ClockTime = 52 s

surfaceFieldValue massFlowInlet write:
    sum(velocity_inlet) of phi = 0

surfaceFieldValue massFlowOutlet write:
    sum(pressure_outlet) of phi = 5.34586e-08

surfaceFieldValue outletVelocity write:
    areaAverage(pressure_outlet) of U = (1.25752 0.00100657 -0.66573)

End

