/*---------------------------------------------------------------------------*\
| =========                 |                                                 |
| \\      /  F ield         | OpenFOAM: The Open Source CFD Toolbox           |
|  \\    /   O peration     | Version:  2506                                  |
|   \\  /    A nd           | Website:  www.openfoam.com                      |
|    \\/     M anipulation  |                                                 |
\*---------------------------------------------------------------------------*/
Build  : _615aae61-20250627 OPENFOAM=2506 version=2506
Arch   : "LSB;label=32;scalar=64"
Exec   : simpleFoam -noFunctionObjects -case /home/ubuntu/fan_CFD_dataset/cases/fan_0
Date   : Nov 07 2025
Time   : 14:36:25
Host   : ip-172-31-37-87
PID    : 166965
I/O    : uncollated
Case   : /home/ubuntu/fan_CFD_dataset/cases/fan_0
nProcs : 1
trapFpe: Floating point exception trapping enabled (FOAM_SIGFPE).
fileModificationChecking : Monitoring run-time modified files using timeStampMaster (fileModificationSkew 5, maxFileModificationPolls 20)
allowSystemOperations : Allowing user-supplied system call operations

// * * * * * * * * * * * * * * * * * * * * * * * * * * * * * * * * * * * * * //
Create time

Create mesh for time = 0


SIMPLE: convergence criteria
    field U	 tolerance 1e-05
    field p	 tolerance 0.0001

Reading field p

Reading field U

Reading/calculating face flux field phi

Selecting incompressible transport model Newtonian
Selecting turbulence model type laminar
Selecting laminar stress model Stokes
No MRF models present

No finite volume options present

Starting time loop

Time = 1

smoothSolver:  Solving for Ux, Initial residual = 1, Final residual = 0.00030724, No Iterations 2
smoothSolver:  Solving for Uy, Initial residual = 1, Final residual = 0.000280485, No Iterations 2
smoothSolver:  Solving for Uz, Initial residual = 1, Final residual = 0.000620087, No Iterations 2
GAMG:  Solving for p, Initial residual = 1, Final residual = 0.0555201, No Iterations 3
GAMG:  Solving for p, Initial residual = 0.133118, Final residual = 0.0091476, No Iterations 1
GAMG:  Solving for p, Initial residual = 0.0331859, Final residual = 0.00116964, No Iterations 2
GAMG:  Solving for p, Initial residual = 0.0186851, Final residual = 0.00136704, No Iterations 1
GAMG:  Solving for p, Initial residual = 0.00753297, Final residual = 0.000334776, No Iterations 2
time step continuity errors : sum local = 2.35388, global = -0.381602, cumulative = -0.381602
ExecutionTime = 0.21 s  ClockTime = 0 s

Time = 2

smoothSolver:  Solving for Ux, Initial residual = 0.0762228, Final residual = 2.90868e-05, No Iterations 2
smoothSolver:  Solving for Uy, Initial residual = 0.0772599, Final residual = 3.08382e-05, No Iterations 2
smoothSolver:  Solving for Uz, Initial residual = 0.143359, Final residual = 5.00532e-05, No Iterations 2
GAMG:  Solving for p, Initial residual = 0.745141, Final residual = 0.0461986, No Iterations 3
GAMG:  Solving for p, Initial residual = 0.0827562, Final residual = 0.00568896, No Iterations 1
GAMG:  Solving for p, Initial residual = 0.0241665, Final residual = 0.0023815, No Iterations 1
GAMG:  Solving for p, Initial residual = 0.0123521, Final residual = 0.000568045, No Iterations 2
GAMG:  Solving for p, Initial residual = 0.00904932, Final residual = 0.000711456, No Iterations 1
time step continuity errors : sum local = 6.97117, global = -2.19897, cumulative = -2.58057
ExecutionTime = 0.28 s  ClockTime = 0 s

Time = 3

smoothSolver:  Solving for Ux, Initial residual = 0.189955, Final residual = 9.52444e-05, No Iterations 2
smoothSolver:  Solving for Uy, Initial residual = 0.192036, Final residual = 9.55089e-05, No Iterations 2
smoothSolver:  Solving for Uz, Initial residual = 0.397255, Final residual = 0.000168784, No Iterations 2
GAMG:  Solving for p, Initial residual = 0.132746, Final residual = 0.0111171, No Iterations 2
GAMG:  Solving for p, Initial residual = 0.0718229, Final residual = 0.00488264, No Iterations 1
GAMG:  Solving for p, Initial residual = 0.0212079, Final residual = 0.000965656, No Iterations 2
GAMG:  Solving for p, Initial residual = 0.0157815, Final residual = 0.00114345, No Iterations 1
GAMG:  Solving for p, Initial residual = 0.0062061, Final residual = 0.000290456, No Iterations 2
time step continuity errors : sum local = 1.61368, global = -0.199853, cumulative = -2.78042
ExecutionTime = 0.35 s  ClockTime = 0 s

Time = 4

smoothSolver:  Solving for Ux, Initial residual = 0.176216, Final residual = 8.99187e-05, No Iterations 2
smoothSolver:  Solving for Uy, Initial residual = 0.176589, Final residual = 8.9206e-05, No Iterations 2
smoothSolver:  Solving for Uz, Initial residual = 0.496206, Final residual = 0.000220573, No Iterations 2
GAMG:  Solving for p, Initial residual = 0.0596826, Final residual = 0.00462577, No Iterations 1
GAMG:  Solving for p, Initial residual = 0.0188192, Final residual = 0.000927144, No Iterations 2
GAMG:  Solving for p, Initial residual = 0.0141695, Final residual = 0.00101789, No Iterations 1
GAMG:  Solving for p, Initial residual = 0.00543893, Final residual = 0.000258042, No Iterations 2
GAMG:  Solving for p, Initial residual = 0.00433539, Final residual = 0.000341939, No Iterations 1
time step continuity errors : sum local = 1.17919, global = -0.326929, cumulative = -3.10735
ExecutionTime = 0.41 s  ClockTime = 0 s

Time = 5

smoothSolver:  Solving for Ux, Initial residual = 0.1322, Final residual = 6.19174e-05, No Iterations 2
smoothSolver:  Solving for Uy, Initial residual = 0.132367, Final residual = 6.23957e-05, No Iterations 2
smoothSolver:  Solving for Uz, Initial residual = 0.469807, Final residual = 0.000201147, No Iterations 2
GAMG:  Solving for p, Initial residual = 0.0616681, Final residual = 0.00363871, No Iterations 2
GAMG:  Solving for p, Initial residual = 0.116022, Final residual = 0.0079625, No Iterations 1
GAMG:  Solving for p, Initial residual = 0.0438948, Final residual = 0.00209442, No Iterations 2
GAMG:  Solving for p, Initial residual = 0.0506131, Final residual = 0.00357818, No Iterations 1
GAMG:  Solving for p, Initial residual = 0.0209381, Final residual = 0.00097145, No Iterations 2
time step continuity errors : sum local = 0.798816, global = 0.103174, cumulative = -3.00418
ExecutionTime = 0.47 s  ClockTime = 0 s

Time = 6

smoothSolver:  Solving for Ux, Initial residual = 0.0903896, Final residual = 4.07408e-05, No Iterations 2
smoothSolver:  Solving for Uy, Initial residual = 0.0905823, Final residual = 4.15525e-05, No Iterations 2
smoothSolver:  Solving for Uz, Initial residual = 0.376876, Final residual = 0.000157693, No Iterations 2
GAMG:  Solving for p, Initial residual = 0.0858643, Final residual = 0.00734569, No Iterations 2
GAMG:  Solving for p, Initial residual = 0.196318, Final residual = 0.0135798, No Iterations 1
GAMG:  Solving for p, Initial residual = 0.0645838, Final residual = 0.00307041, No Iterations 2
GAMG:  Solving for p, Initial residual = 0.0419416, Final residual = 0.00303885, No Iterations 1
GAMG:  Solving for p, Initial residual = 0.0162364, Final residual = 0.000770674, No Iterations 2
time step continuity errors : sum local = 1.51, global = 0.201181, cumulative = -2.803
ExecutionTime = 0.54 s  ClockTime = 0 s

Time = 7

smoothSolver:  Solving for Ux, Initial residual = 0.0577062, Final residual = 2.76322e-05, No Iterations 2
smoothSolver:  Solving for Uy, Initial residual = 0.057989, Final residual = 2.81654e-05, No Iterations 2
smoothSolver:  Solving for Uz, Initial residual = 0.232553, Final residual = 0.000102655, No Iterations 2
GAMG:  Solving for p, Initial residual = 0.132644, Final residual = 0.012203, No Iterations 2
GAMG:  Solving for p, Initial residual = 0.141505, Final residual = 0.00976676, No Iterations 1
GAMG:  Solving for p, Initial residual = 0.0441026, Final residual = 0.00208445, No Iterations 2
GAMG:  Solving for p, Initial residual = 0.0301046, Final residual = 0.00219882, No Iterations 1
GAMG:  Solving for p, Initial residual = 0.011796, Final residual = 0.000569391, No Iterations 2
time step continuity errors : sum local = 1.77347, global = 0.241352, cumulative = -2.56164
ExecutionTime = 0.6 s  ClockTime = 0 s

Time = 8

smoothSolver:  Solving for Ux, Initial residual = 0.0419128, Final residual = 2.25532e-05, No Iterations 2
smoothSolver:  Solving for Uy, Initial residual = 0.0409239, Final residual = 2.26727e-05, No Iterations 2
smoothSolver:  Solving for Uz, Initial residual = 0.101426, Final residual = 5.51625e-05, No Iterations 2
GAMG:  Solving for p, Initial residual = 0.28238, Final residual = 0.02422, No Iterations 2
GAMG:  Solving for p, Initial residual = 0.11178, Final residual = 0.00768207, No Iterations 1
GAMG:  Solving for p, Initial residual = 0.0341596, Final residual = 0.00160334, No Iterations 2
GAMG:  Solving for p, Initial residual = 0.024186, Final residual = 0.00177604, No Iterations 1
GAMG:  Solving for p, Initial residual = 0.00965185, Final residual = 0.00047149, No Iterations 2
time step continuity errors : sum local = 1.62257, global = 0.223658, cumulative = -2.33799
ExecutionTime = 0.67 s  ClockTime = 0 s

Time = 9

smoothSolver:  Solving for Ux, Initial residual = 0.0474479, Final residual = 2.60764e-05, No Iterations 2
smoothSolver:  Solving for Uy, Initial residual = 0.0454101, Final residual = 2.52912e-05, No Iterations 2
smoothSolver:  Solving for Uz, Initial residual = 0.111824, Final residual = 5.59138e-05, No Iterations 2
GAMG:  Solving for p, Initial residual = 0.246859, Final residual = 0.0159544, No Iterations 2
GAMG:  Solving for p, Initial residual = 0.0851518, Final residual = 0.00585675, No Iterations 1
GAMG:  Solving for p, Initial residual = 0.026709, Final residual = 0.00124685, No Iterations 2
GAMG:  Solving for p, Initial residual = 0.0194907, Final residual = 0.00144502, No Iterations 1
GAMG:  Solving for p, Initial residual = 0.00801988, Final residual = 0.000394448, No Iterations 2
time step continuity errors : sum local = 1.18015, global = 0.161482, cumulative = -2.1765
ExecutionTime = 0.74 s  ClockTime = 0 s

Time = 10

smoothSolver:  Solving for Ux, Initial residual = 0.0609903, Final residual = 3.23435e-05, No Iterations 2
smoothSolver:  Solving for Uy, Initial residual = 0.0587009, Final residual = 3.08138e-05, No Iterations 2
smoothSolver:  Solving for Uz, Initial residual = 0.207552, Final residual = 8.74645e-05, No Iterations 2
GAMG:  Solving for p, Initial residual = 0.159055, Final residual = 0.0133529, No Iterations 1
GAMG:  Solving for p, Initial residual = 0.0502954, Final residual = 0.0024756, No Iterations 2
GAMG:  Solving for p, Initial residual = 0.0323672, Final residual = 0.00229516, No Iterations 1
GAMG:  Solving for p, Initial residual = 0.0123231, Final residual = 0.000575453, No Iterations 2
GAMG:  Solving for p, Initial residual = 0.00954587, Final residual = 0.000741678, No Iterations 1
time step continuity errors : sum local = 1.49386, global = 0.449801, cumulative = -1.7267
ExecutionTime = 0.8 s  ClockTime = 1 s

Time = 11

smoothSolver:  Solving for Ux, Initial residual = 0.0691884, Final residual = 3.61663e-05, No Iterations 2
smoothSolver:  Solving for Uy, Initial residual = 0.0664468, Final residual = 3.41638e-05, No Iterations 2
smoothSolver:  Solving for Uz, Initial residual = 0.269001, Final residual = 0.000109523, No Iterations 2
GAMG:  Solving for p, Initial residual = 0.13708, Final residual = 0.00985883, No Iterations 1
GAMG:  Solving for p, Initial residual = 0.0478926, Final residual = 0.00204182, No Iterations 2
GAMG:  Solving for p, Initial residual = 0.0363336, Final residual = 0.00250117, No Iterations 1
GAMG:  Solving for p, Initial residual = 0.0135837, Final residual = 0.000597825, No Iterations 2
GAMG:  Solving for p, Initial residual = 0.0108506, Final residual = 0.000805503, No Iterations 1
time step continuity errors : sum local = 0.72332, global = -0.181662, cumulative = -1.90837
ExecutionTime = 0.86 s  ClockTime = 1 s

Time = 12

smoothSolver:  Solving for Ux, Initial residual = 0.068546, Final residual = 3.62782e-05, No Iterations 2
smoothSolver:  Solving for Uy, Initial residual = 0.0654398, Final residual = 3.44352e-05, No Iterations 2
smoothSolver:  Solving for Uz, Initial residual = 0.271155, Final residual = 0.000108671, No Iterations 2
GAMG:  Solving for p, Initial residual = 0.13863, Final residual = 0.00617345, No Iterations 2
GAMG:  Solving for p, Initial residual = 0.239528, Final residual = 0.0161462, No Iterations 1
GAMG:  Solving for p, Initial residual = 0.0762411, Final residual = 0.00350575, No Iterations 2
GAMG:  Solving for p, Initial residual = 0.0468888, Final residual = 0.00325449, No Iterations 1
GAMG:  Solving for p, Initial residual = 0.0180812, Final residual = 0.000819366, No Iterations 2
time step continuity errors : sum local = 0.570877, global = -0.0811933, cumulative = -1.98956
ExecutionTime = 0.93 s  ClockTime = 1 s

Time = 13

smoothSolver:  Solving for Ux, Initial residual = 0.0591034, Final residual = 3.23197e-05, No Iterations 2
smoothSolver:  Solving for Uy, Initial residual = 0.055982, Final residual = 3.10311e-05, No Iterations 2
smoothSolver:  Solving for Uz, Initial residual = 0.206418, Final residual = 8.77042e-05, No Iterations 2
GAMG:  Solving for p, Initial residual = 0.164134, Final residual = 0.00980431, No Iterations 2
GAMG:  Solving for p, Initial residual = 0.148789, Final residual = 0.0102165, No Iterations 1
GAMG:  Solving for p, Initial residual = 0.046291, Final residual = 0.00218448, No Iterations 2
GAMG:  Solving for p, Initial residual = 0.0315939, Final residual = 0.00225836, No Iterations 1
GAMG:  Solving for p, Initial residual = 0.012262, Final residual = 0.000581008, No Iterations 2
time step continuity errors : sum local = 0.770111, global = -0.109677, cumulative = -2.09924
ExecutionTime = 1 s  ClockTime = 1 s

Time = 14

smoothSolver:  Solving for Ux, Initial residual = 0.0478031, Final residual = 2.77917e-05, No Iterations 2
smoothSolver:  Solving for Uy, Initial residual = 0.0451255, Final residual = 2.71007e-05, No Iterations 2
smoothSolver:  Solving for Uz, Initial residual = 0.108775, Final residual = 5.5478e-05, No Iterations 2
GAMG:  Solving for p, Initial residual = 0.244907, Final residual = 0.0164185, No Iterations 2
GAMG:  Solving for p, Initial residual = 0.116826, Final residual = 0.00812206, No Iterations 1
GAMG:  Solving for p, Initial residual = 0.0357326, Final residual = 0.00171212, No Iterations 2
GAMG:  Solving for p, Initial residual = 0.0254305, Final residual = 0.00186314, No Iterations 1
GAMG:  Solving for p, Initial residual = 0.010064, Final residual = 0.000492503, No Iterations 2
time step continuity errors : sum local = 0.784665, global = -0.110825, cumulative = -2.21006
ExecutionTime = 1.06 s  ClockTime = 1 s

Time = 15

smoothSolver:  Solving for Ux, Initial residual = 0.0423357, Final residual = 2.5224e-05, No Iterations 2
smoothSolver:  Solving for Uy, Initial residual = 0.0407532, Final residual = 2.50222e-05, No Iterations 2
smoothSolver:  Solving for Uz, Initial residual = 0.0671928, Final residual = 4.09395e-05, No Iterations 2
GAMG:  Solving for p, Initial residual = 0.367887, Final residual = 0.0232647, No Iterations 2
GAMG:  Solving for p, Initial residual = 0.0928475, Final residual = 0.00652252, No Iterations 1
GAMG:  Solving for p, Initial residual = 0.0285665, Final residual = 0.00139005, No Iterations 2
GAMG:  Solving for p, Initial residual = 0.0210162, Final residual = 0.00158166, No Iterations 1
GAMG:  Solving for p, Initial residual = 0.00854677, Final residual = 0.000431335, No Iterations 2
time step continuity errors : sum local = 0.646537, global = -0.0894064, cumulative = -2.29947
ExecutionTime = 1.13 s  ClockTime = 1 s

Time = 16

smoothSolver:  Solving for Ux, Initial residual = 0.0415151, Final residual = 2.40117e-05, No Iterations 2
smoothSolver:  Solving for Uy, Initial residual = 0.0405888, Final residual = 2.38047e-05, No Iterations 2
smoothSolver:  Solving for Uz, Initial residual = 0.116018, Final residual = 5.19226e-05, No Iterations 2
GAMG:  Solving for p, Initial residual = 0.183363, Final residual = 0.00911526, No Iterations 2
GAMG:  Solving for p, Initial residual = 0.0667914, Final residual = 0.00477712, No Iterations 1
GAMG:  Solving for p, Initial residual = 0.0219592, Final residual = 0.00110991, No Iterations 2
GAMG:  Solving for p, Initial residual = 0.016986, Final residual = 0.00131959, No Iterations 1
GAMG:  Solving for p, Initial residual = 0.00717791, Final residual = 0.000374965, No Iterations 2
time step continuity errors : sum local = 0.429089, global = -0.0577238, cumulative = -2.35719
ExecutionTime = 1.2 s  ClockTime = 1 s

Time = 17

smoothSolver:  Solving for Ux, Initial residual = 0.0401659, Final residual = 2.27763e-05, No Iterations 2
smoothSolver:  Solving for Uy, Initial residual = 0.0392916, Final residual = 2.22961e-05, No Iterations 2
smoothSolver:  Solving for Uz, Initial residual = 0.146193, Final residual = 5.8926e-05, No Iterations 2
GAMG:  Solving for p, Initial residual = 0.137476, Final residual = 0.0136599, No Iterations 1
GAMG:  Solving for p, Initial residual = 0.0466703, Final residual = 0.00158242, No Iterations 2
GAMG:  Solving for p, Initial residual = 0.0226174, Final residual = 0.00196898, No Iterations 1
GAMG:  Solving for p, Initial residual = 0.0103435, Final residual = 0.000485237, No Iterations 2
GAMG:  Solving for p, Initial residual = 0.00735435, Final residual = 0.000674725, No Iterations 1
time step continuity errors : sum local = 0.446917, global = -0.10163, cumulative = -2.45882
ExecutionTime = 1.26 s  ClockTime = 1 s

Time = 18

smoothSolver:  Solving for Ux, Initial residual = 0.0362481, Final residual = 2.0619e-05, No Iterations 2
smoothSolver:  Solving for Uy, Initial residual = 0.0351883, Final residual = 1.99615e-05, No Iterations 2
smoothSolver:  Solving for Uz, Initial residual = 0.139798, Final residual = 5.54619e-05, No Iterations 2
GAMG:  Solving for p, Initial residual = 0.128515, Final residual = 0.00502743, No Iterations 2
GAMG:  Solving for p, Initial residual = 0.145114, Final residual = 0.0100036, No Iterations 1
GAMG:  Solving for p, Initial residual = 0.0518285, Final residual = 0.00231898, No Iterations 2
GAMG:  Solving for p, Initial residual = 0.0533333, Final residual = 0.00379047, No Iterations 1
GAMG:  Solving for p, Initial residual = 0.0217006, Final residual = 0.00096011, No Iterations 2
time step continuity errors : sum local = 0.196185, global = 0.0251105, cumulative = -2.43371
ExecutionTime = 1.32 s  ClockTime = 1 s

Time = 19

smoothSolver:  Solving for Ux, Initial residual = 0.0308678, Final residual = 1.80012e-05, No Iterations 2
smoothSolver:  Solving for Uy, Initial residual = 0.0297281, Final residual = 1.72702e-05, No Iterations 2
smoothSolver:  Solving for Uz, Initial residual = 0.109144, Final residual = 4.44632e-05, No Iterations 2
GAMG:  Solving for p, Initial residual = 0.137391, Final residual = 0.0074421, No Iterations 2
GAMG:  Solving for p, Initial residual = 0.162892, Final residual = 0.0112158, No Iterations 1
GAMG:  Solving for p, Initial residual = 0.0510125, Final residual = 0.00234448, No Iterations 2
GAMG:  Solving for p, Initial residual = 0.033808, Final residual = 0.00237065, No Iterations 1
GAMG:  Solving for p, Initial residual = 0.0130742, Final residual = 0.000596944, No Iterations 2
time step continuity errors : sum local = 0.299368, global = 0.0428978, cumulative = -2.39081
ExecutionTime = 1.4 s  ClockTime = 1 s

Time = 20

smoothSolver:  Solving for Ux, Initial residual = 0.0265091, Final residual = 1.59576e-05, No Iterations 2
smoothSolver:  Solving for Uy, Initial residual = 0.025334, Final residual = 1.49218e-05, No Iterations 2
smoothSolver:  Solving for Uz, Initial residual = 0.0682396, Final residual = 3.04108e-05, No Iterations 2
GAMG:  Solving for p, Initial residual = 0.170022, Final residual = 0.0108909, No Iterations 2
GAMG:  Solving for p, Initial residual = 0.120936, Final residual = 0.00839224, No Iterations 1
GAMG:  Solving for p, Initial residual = 0.0375198, Final residual = 0.0017574, No Iterations 2
GAMG:  Solving for p, Initial residual = 0.0262851, Final residual = 0.00188706, No Iterations 1
GAMG:  Solving for p, Initial residual = 0.0103215, Final residual = 0.000489737, No Iterations 2
time step continuity errors : sum local = 0.34668, global = 0.0509284, cumulative = -2.33988
ExecutionTime = 1.46 s  ClockTime = 1 s

Time = 21

smoothSolver:  Solving for Ux, Initial residual = 0.0248439, Final residual = 1.48103e-05, No Iterations 2
smoothSolver:  Solving for Uy, Initial residual = 0.0238183, Final residual = 1.38919e-05, No Iterations 2
smoothSolver:  Solving for Uz, Initial residual = 0.0364392, Final residual = 1.99837e-05, No Iterations 2
GAMG:  Solving for p, Initial residual = 0.274497, Final residual = 0.0176406, No Iterations 2
GAMG:  Solving for p, Initial residual = 0.0957049, Final residual = 0.0066994, No Iterations 1
GAMG:  Solving for p, Initial residual = 0.029811, Final residual = 0.001414, No Iterations 2
GAMG:  Solving for p, Initial residual = 0.0216725, Final residual = 0.00159689, No Iterations 1
GAMG:  Solving for p, Initial residual = 0.00870652, Final residual = 0.00042518, No Iterations 2
time step continuity errors : sum local = 0.319314, global = 0.0470105, cumulative = -2.29287
ExecutionTime = 1.52 s  ClockTime = 1 s

Time = 22

smoothSolver:  Solving for Ux, Initial residual = 0.0252286, Final residual = 1.44081e-05, No Iterations 2
smoothSolver:  Solving for Uy, Initial residual = 0.0244567, Final residual = 1.36916e-05, No Iterations 2
smoothSolver:  Solving for Uz, Initial residual = 0.036931, Final residual = 1.92674e-05, No Iterations 2
GAMG:  Solving for p, Initial residual = 0.221694, Final residual = 0.012058, No Iterations 2
GAMG:  Solving for p, Initial residual = 0.0728775, Final residual = 0.00516774, No Iterations 1
GAMG:  Solving for p, Initial residual = 0.0235656, Final residual = 0.00114933, No Iterations 2
GAMG:  Solving for p, Initial residual = 0.0177985, Final residual = 0.00135382, No Iterations 1
GAMG:  Solving for p, Initial residual = 0.00738662, Final residual = 0.000374167, No Iterations 2
time step continuity errors : sum local = 0.242972, global = 0.0358495, cumulative = -2.25702
ExecutionTime = 1.6 s  ClockTime = 1 s

Time = 23

smoothSolver:  Solving for Ux, Initial residual = 0.0260597, Final residual = 1.40093e-05, No Iterations 2
smoothSolver:  Solving for Uy, Initial residual = 0.0253739, Final residual = 1.34541e-05, No Iterations 2
smoothSolver:  Solving for Uz, Initial residual = 0.051497, Final residual = 2.28814e-05, No Iterations 2
GAMG:  Solving for p, Initial residual = 0.149848, Final residual = 0.0146521, No Iterations 1
GAMG:  Solving for p, Initial residual = 0.0505554, Final residual = 0.00237393, No Iterations 2
GAMG:  Solving for p, Initial residual = 0.030917, Final residual = 0.00233207, No Iterations 1
GAMG:  Solving for p, Initial residual = 0.0122077, Final residual = 0.000612789, No Iterations 2
GAMG:  Solving for p, Initial residual = 0.00957964, Final residual = 0.000786223, No Iterations 1
time step continuity errors : sum local = 0.355842, global = 0.116883, cumulative = -2.14014
ExecutionTime = 1.66 s  ClockTime = 1 s

Time = 24

smoothSolver:  Solving for Ux, Initial residual = 0.0259792, Final residual = 1.34289e-05, No Iterations 2
smoothSolver:  Solving for Uy, Initial residual = 0.0252786, Final residual = 1.30168e-05, No Iterations 2
smoothSolver:  Solving for Uz, Initial residual = 0.0580962, Final residual = 2.39525e-05, No Iterations 2
GAMG:  Solving for p, Initial residual = 0.12972, Final residual = 0.00372046, No Iterations 2
GAMG:  Solving for p, Initial residual = 0.0663719, Final residual = 0.00470314, No Iterations 1
GAMG:  Solving for p, Initial residual = 0.0228973, Final residual = 0.000985245, No Iterations 2
GAMG:  Solving for p, Initial residual = 0.0165014, Final residual = 0.00128465, No Iterations 1
GAMG:  Solving for p, Initial residual = 0.00715938, Final residual = 0.000323546, No Iterations 2
time step continuity errors : sum local = 0.07669, global = -0.0110164, cumulative = -2.15116
ExecutionTime = 1.72 s  ClockTime = 1 s

Time = 25

smoothSolver:  Solving for Ux, Initial residual = 0.024978, Final residual = 1.28109e-05, No Iterations 2
smoothSolver:  Solving for Uy, Initial residual = 0.0240494, Final residual = 1.22611e-05, No Iterations 2
smoothSolver:  Solving for Uz, Initial residual = 0.0534821, Final residual = 2.16978e-05, No Iterations 2
GAMG:  Solving for p, Initial residual = 0.128946, Final residual = 0.00590497, No Iterations 2
GAMG:  Solving for p, Initial residual = 0.161553, Final residual = 0.0110397, No Iterations 1
GAMG:  Solving for p, Initial residual = 0.0490696, Final residual = 0.00222934, No Iterations 2
GAMG:  Solving for p, Initial residual = 0.0317204, Final residual = 0.00220807, No Iterations 1
GAMG:  Solving for p, Initial residual = 0.0121834, Final residual = 0.00054739, No Iterations 2
time step continuity errors : sum local = 0.110214, global = -0.0155079, cumulative = -2.16667
ExecutionTime = 1.79 s  ClockTime = 2 s

Time = 26

smoothSolver:  Solving for Ux, Initial residual = 0.0232636, Final residual = 1.20205e-05, No Iterations 2
smoothSolver:  Solving for Uy, Initial residual = 0.0222016, Final residual = 1.14167e-05, No Iterations 2
smoothSolver:  Solving for Uz, Initial residual = 0.0400827, Final residual = 1.73813e-05, No Iterations 2
GAMG:  Solving for p, Initial residual = 0.144483, Final residual = 0.00810732, No Iterations 2
GAMG:  Solving for p, Initial residual = 0.112448, Final residual = 0.00768774, No Iterations 1
GAMG:  Solving for p, Initial residual = 0.0343683, Final residual = 0.00160343, No Iterations 2
GAMG:  Solving for p, Initial residual = 0.0241616, Final residual = 0.00168347, No Iterations 1
GAMG:  Solving for p, Initial residual = 0.00932857, Final residual = 0.000434106, No Iterations 2
time step continuity errors : sum local = 0.144578, global = -0.021624, cumulative = -2.18829
ExecutionTime = 1.86 s  ClockTime = 2 s

Time = 27

smoothSolver:  Solving for Ux, Initial residual = 0.0214609, Final residual = 1.12286e-05, No Iterations 2
smoothSolver:  Solving for Uy, Initial residual = 0.0204886, Final residual = 1.05961e-05, No Iterations 2
smoothSolver:  Solving for Uz, Initial residual = 0.0262138, Final residual = 1.30564e-05, No Iterations 2
GAMG:  Solving for p, Initial residual = 0.1869, Final residual = 0.0111862, No Iterations 2
GAMG:  Solving for p, Initial residual = 0.0884577, Final residual = 0.00609281, No Iterations 1
GAMG:  Solving for p, Initial residual = 0.0273286, Final residual = 0.00129736, No Iterations 2
GAMG:  Solving for p, Initial residual = 0.0200222, Final residual = 0.00143092, No Iterations 1
GAMG:  Solving for p, Initial residual = 0.00788186, Final residual = 0.000379799, No Iterations 2
time step continuity errors : sum local = 0.15133, global = -0.0228761, cumulative = -2.21117
ExecutionTime = 1.92 s  ClockTime = 2 s

Time = 28

smoothSolver:  Solving for Ux, Initial residual = 0.0200461, Final residual = 1.05816e-05, No Iterations 2
smoothSolver:  Solving for Uy, Initial residual = 0.0192133, Final residual = 1.00104e-05, No Iterations 2
smoothSolver:  Solving for Uz, Initial residual = 0.0219526, Final residual = 1.15095e-05, No Iterations 2
GAMG:  Solving for p, Initial residual = 0.225022, Final residual = 0.0123055, No Iterations 2
GAMG:  Solving for p, Initial residual = 0.0689678, Final residual = 0.00479954, No Iterations 1
GAMG:  Solving for p, Initial residual = 0.021841, Final residual = 0.00106362, No Iterations 2
GAMG:  Solving for p, Initial residual = 0.0166697, Final residual = 0.00122361, No Iterations 1
GAMG:  Solving for p, Initial residual = 0.00671916, Final residual = 0.000335504, No Iterations 2
time step continuity errors : sum local = 0.130847, global = -0.0198253, cumulative = -2.23099
ExecutionTime = 1.98 s  ClockTime = 2 s

Time = 29

smoothSolver:  Solving for Ux, Initial residual = 0.0190152, Final residual = 1.00703e-05, No Iterations 2
smoothSolver:  Solving for Uy, Initial residual = 0.0182252, Final residual = 9.58531e-06, No Iterations 2
smoothSolver:  Solving for Uz, Initial residual = 0.0267612, Final residual = 1.25622e-05, No Iterations 2
GAMG:  Solving for p, Initial residual = 0.144113, Final residual = 0.0139345, No Iterations 1
GAMG:  Solving for p, Initial residual = 0.0466505, Final residual = 0.00229746, No Iterations 2
GAMG:  Solving for p, Initial residual = 0.0285848, Final residual = 0.00204172, No Iterations 1
GAMG:  Solving for p, Initial residual = 0.0107994, Final residual = 0.000542234, No Iterations 2
GAMG:  Solving for p, Initial residual = 0.00881819, Final residual = 0.000685711, No Iterations 1
time step continuity errors : sum local = 0.223229, global = -0.0817638, cumulative = -2.31275
ExecutionTime = 2.05 s  ClockTime = 2 s

Time = 30

smoothSolver:  Solving for Ux, Initial residual = 0.018037, Final residual = 9.51301e-06, No Iterations 2
smoothSolver:  Solving for Uy, Initial residual = 0.0173197, Final residual = 9.08682e-06, No Iterations 2
smoothSolver:  Solving for Uz, Initial residual = 0.0312711, Final residual = 1.34426e-05, No Iterations 2
GAMG:  Solving for p, Initial residual = 0.117142, Final residual = 0.011274, No Iterations 1
GAMG:  Solving for p, Initial residual = 0.0389285, Final residual = 0.00147221, No Iterations 2
GAMG:  Solving for p, Initial residual = 0.0200243, Final residual = 0.00155801, No Iterations 1
GAMG:  Solving for p, Initial residual = 0.00850716, Final residual = 0.000432656, No Iterations 2
GAMG:  Solving for p, Initial residual = 0.0065383, Final residual = 0.000551174, No Iterations 1
time step continuity errors : sum local = 0.124778, global = -0.0410745, cumulative = -2.35383
ExecutionTime = 2.11 s  ClockTime = 2 s

Time = 31

smoothSolver:  Solving for Ux, Initial residual = 0.0170489, Final residual = 8.9851e-06, No Iterations 2
smoothSolver:  Solving for Uy, Initial residual = 0.0164119, Final residual = 8.62637e-06, No Iterations 2
smoothSolver:  Solving for Uz, Initial residual = 0.0311501, Final residual = 1.31121e-05, No Iterations 2
GAMG:  Solving for p, Initial residual = 0.109087, Final residual = 0.0101079, No Iterations 1
GAMG:  Solving for p, Initial residual = 0.04514, Final residual = 0.00208332, No Iterations 2
GAMG:  Solving for p, Initial residual = 0.0384372, Final residual = 0.00259193, No Iterations 1
GAMG:  Solving for p, Initial residual = 0.0140111, Final residual = 0.000613697, No Iterations 2
GAMG:  Solving for p, Initial residual = 0.0111162, Final residual = 0.000825387, No Iterations 1
time step continuity errors : sum local = 0.107934, global = 0.0272272, cumulative = -2.3266
ExecutionTime = 2.17 s  ClockTime = 2 s

Time = 32

smoothSolver:  Solving for Ux, Initial residual = 0.0161553, Final residual = 8.49952e-06, No Iterations 2
smoothSolver:  Solving for Uy, Initial residual = 0.0156229, Final residual = 8.21548e-06, No Iterations 2
smoothSolver:  Solving for Uz, Initial residual = 0.0270116, Final residual = 1.1701e-05, No Iterations 2
GAMG:  Solving for p, Initial residual = 0.110646, Final residual = 0.00480298, No Iterations 2
GAMG:  Solving for p, Initial residual = 0.107665, Final residual = 0.0073462, No Iterations 1
GAMG:  Solving for p, Initial residual = 0.0333714, Final residual = 0.00149917, No Iterations 2
GAMG:  Solving for p, Initial residual = 0.0225374, Final residual = 0.0015638, No Iterations 1
GAMG:  Solving for p, Initial residual = 0.008826, Final residual = 0.000396078, No Iterations 2
time step continuity errors : sum local = 0.057637, global = 0.00864327, cumulative = -2.31796
ExecutionTime = 2.24 s  ClockTime = 2 s

Time = 33

smoothSolver:  Solving for Ux, Initial residual = 0.0155575, Final residual = 8.04707e-06, No Iterations 2
smoothSolver:  Solving for Uy, Initial residual = 0.0151374, Final residual = 7.89633e-06, No Iterations 2
smoothSolver:  Solving for Uz, Initial residual = 0.0208164, Final residual = 9.65949e-06, No Iterations 2
GAMG:  Solving for p, Initial residual = 0.120782, Final residual = 0.00581453, No Iterations 2
GAMG:  Solving for p, Initial residual = 0.083964, Final residual = 0.00575141, No Iterations 1
GAMG:  Solving for p, Initial residual = 0.0262987, Final residual = 0.001218, No Iterations 2
GAMG:  Solving for p, Initial residual = 0.0188541, Final residual = 0.00132193, No Iterations 1
GAMG:  Solving for p, Initial residual = 0.00745977, Final residual = 0.000347022, No Iterations 2
time step continuity errors : sum local = 0.0681264, global = 0.0105189, cumulative = -2.30744
ExecutionTime = 2.31 s  ClockTime = 2 s

Time = 34

smoothSolver:  Solving for Ux, Initial residual = 0.0153033, Final residual = 7.74055e-06, No Iterations 2
smoothSolver:  Solving for Uy, Initial residual = 0.0150113, Final residual = 7.66897e-06, No Iterations 2
smoothSolver:  Solving for Uz, Initial residual = 0.0162987, Final residual = 8.10287e-06, No Iterations 2
GAMG:  Solving for p, Initial residual = 0.142553, Final residual = 0.00671631, No Iterations 2
GAMG:  Solving for p, Initial residual = 0.0675079, Final residual = 0.00465114, No Iterations 1
GAMG:  Solving for p, Initial residual = 0.0215496, Final residual = 0.00102321, No Iterations 2
GAMG:  Solving for p, Initial residual = 0.0161277, Final residual = 0.00115759, No Iterations 1
GAMG:  Solving for p, Initial residual = 0.00650566, Final residual = 0.000311762, No Iterations 2
time step continuity errors : sum local = 0.0664966, global = 0.0103237, cumulative = -2.29712
ExecutionTime = 2.38 s  ClockTime = 2 s

Time = 35

smoothSolver:  Solving for Ux, Initial residual = 0.0152625, Final residual = 7.5441e-06, No Iterations 2
smoothSolver:  Solving for Uy, Initial residual = 0.0150539, Final residual = 7.47775e-06, No Iterations 2
smoothSolver:  Solving for Uz, Initial residual = 0.0151649, Final residual = 7.44157e-06, No Iterations 2
GAMG:  Solving for p, Initial residual = 0.17387, Final residual = 0.0163451, No Iterations 1
GAMG:  Solving for p, Initial residual = 0.0499786, Final residual = 0.00242784, No Iterations 2
GAMG:  Solving for p, Initial residual = 0.0286549, Final residual = 0.00198651, No Iterations 1
GAMG:  Solving for p, Initial residual = 0.010792, Final residual = 0.000523635, No Iterations 2
GAMG:  Solving for p, Initial residual = 0.00881473, Final residual = 0.000662283, No Iterations 1
time step continuity errors : sum local = 0.133116, global = 0.0496853, cumulative = -2.24743
ExecutionTime = 2.44 s  ClockTime = 2 s

Time = 36

smoothSolver:  Solving for Ux, Initial residual = 0.0152148, Final residual = 7.4167e-06, No Iterations 2
smoothSolver:  Solving for Uy, Initial residual = 0.0150455, Final residual = 7.33502e-06, No Iterations 2
smoothSolver:  Solving for Uz, Initial residual = 0.015633, Final residual = 7.34397e-06, No Iterations 2
GAMG:  Solving for p, Initial residual = 0.136976, Final residual = 0.0112612, No Iterations 1
GAMG:  Solving for p, Initial residual = 0.0399149, Final residual = 0.0017667, No Iterations 2
GAMG:  Solving for p, Initial residual = 0.0234514, Final residual = 0.00171128, No Iterations 1
GAMG:  Solving for p, Initial residual = 0.00916336, Final residual = 0.000454591, No Iterations 2
GAMG:  Solving for p, Initial residual = 0.0074194, Final residual = 0.000581578, No Iterations 1
time step continuity errors : sum local = 0.0947918, global = 0.0362274, cumulative = -2.2112
ExecutionTime = 2.5 s  ClockTime = 2 s

Time = 37

smoothSolver:  Solving for Ux, Initial residual = 0.0150666, Final residual = 7.22228e-06, No Iterations 2
smoothSolver:  Solving for Uy, Initial residual = 0.0148703, Final residual = 7.14014e-06, No Iterations 2
smoothSolver:  Solving for Uz, Initial residual = 0.0159306, Final residual = 7.20494e-06, No Iterations 2
GAMG:  Solving for p, Initial residual = 0.121826, Final residual = 0.0105794, No Iterations 1
GAMG:  Solving for p, Initial residual = 0.037767, Final residual = 0.0013507, No Iterations 2
GAMG:  Solving for p, Initial residual = 0.018659, Final residual = 0.00146774, No Iterations 1
GAMG:  Solving for p, Initial residual = 0.00789057, Final residual = 0.000343895, No Iterations 2
GAMG:  Solving for p, Initial residual = 0.00532719, Final residual = 0.000454774, No Iterations 1
time step continuity errors : sum local = 0.0539788, global = 0.00663656, cumulative = -2.20457
ExecutionTime = 2.56 s  ClockTime = 2 s

Time = 38

smoothSolver:  Solving for Ux, Initial residual = 0.0147804, Final residual = 7.0412e-06, No Iterations 2
smoothSolver:  Solving for Uy, Initial residual = 0.0145521, Final residual = 6.93433e-06, No Iterations 2
smoothSolver:  Solving for Uz, Initial residual = 0.0153979, Final residual = 6.90917e-06, No Iterations 2
GAMG:  Solving for p, Initial residual = 0.117914, Final residual = 0.01003, No Iterations 1
GAMG:  Solving for p, Initial residual = 0.0436139, Final residual = 0.00204686, No Iterations 2
GAMG:  Solving for p, Initial residual = 0.0320043, Final residual = 0.0021122, No Iterations 1
GAMG:  Solving for p, Initial residual = 0.0111065, Final residual = 0.000497334, No Iterations 2
GAMG:  Solving for p, Initial residual = 0.00805974, Final residual = 0.000581144, No Iterations 1
time step continuity errors : sum local = 0.0606346, global = -0.0170162, cumulative = -2.22158
ExecutionTime = 2.63 s  ClockTime = 2 s

Time = 39

smoothSolver:  Solving for Ux, Initial residual = 0.0144076, Final residual = 6.82534e-06, No Iterations 2
smoothSolver:  Solving for Uy, Initial residual = 0.014136, Final residual = 6.71652e-06, No Iterations 2
smoothSolver:  Solving for Uz, Initial residual = 0.014255, Final residual = 6.47995e-06, No Iterations 2
GAMG:  Solving for p, Initial residual = 0.121458, Final residual = 0.0110346, No Iterations 1
GAMG:  Solving for p, Initial residual = 0.0519264, Final residual = 0.00257976, No Iterations 2
GAMG:  Solving for p, Initial residual = 0.0286248, Final residual = 0.00187656, No Iterations 1
GAMG:  Solving for p, Initial residual = 0.00989296, Final residual = 0.000460378, No Iterations 2
GAMG:  Solving for p, Initial residual = 0.00772794, Final residual = 0.000555099, No Iterations 1
time step continuity errors : sum local = 0.0767339, global = -0.0261795, cumulative = -2.24776
ExecutionTime = 2.69 s  ClockTime = 2 s

Time = 40

smoothSolver:  Solving for Ux, Initial residual = 0.0140171, Final residual = 6.60113e-06, No Iterations 2
smoothSolver:  Solving for Uy, Initial residual = 0.0137093, Final residual = 6.49153e-06, No Iterations 2
smoothSolver:  Solving for Uz, Initial residual = 0.0131763, Final residual = 6.09041e-06, No Iterations 2
GAMG:  Solving for p, Initial residual = 0.131756, Final residual = 0.0122323, No Iterations 1
GAMG:  Solving for p, Initial residual = 0.0431888, Final residual = 0.00216786, No Iterations 2
GAMG:  Solving for p, Initial residual = 0.0250027, Final residual = 0.00165675, No Iterations 1
GAMG:  Solving for p, Initial residual = 0.00885515, Final residual = 0.000424133, No Iterations 2
GAMG:  Solving for p, Initial residual = 0.0071566, Final residual = 0.000521392, No Iterations 1
time step continuity errors : sum local = 0.0824301, global = -0.030036, cumulative = -2.2778
ExecutionTime = 2.75 s  ClockTime = 2 s

Time = 41

smoothSolver:  Solving for Ux, Initial residual = 0.013647, Final residual = 6.42723e-06, No Iterations 2
smoothSolver:  Solving for Uy, Initial residual = 0.0133161, Final residual = 6.29294e-06, No Iterations 2
smoothSolver:  Solving for Uz, Initial residual = 0.0126407, Final residual = 5.83991e-06, No Iterations 2
GAMG:  Solving for p, Initial residual = 0.126262, Final residual = 0.010722, No Iterations 1
GAMG:  Solving for p, Initial residual = 0.0351744, Final residual = 0.00174504, No Iterations 2
GAMG:  Solving for p, Initial residual = 0.021485, Final residual = 0.00144959, No Iterations 1
GAMG:  Solving for p, Initial residual = 0.00780425, Final residual = 0.000380389, No Iterations 2
GAMG:  Solving for p, Initial residual = 0.00638078, Final residual = 0.000473585, No Iterations 1
time step continuity errors : sum local = 0.0764421, global = -0.0292174, cumulative = -2.30702
ExecutionTime = 2.82 s  ClockTime = 3 s

Time = 42

smoothSolver:  Solving for Ux, Initial residual = 0.0133112, Final residual = 6.26392e-06, No Iterations 2
smoothSolver:  Solving for Uy, Initial residual = 0.0129714, Final residual = 6.13477e-06, No Iterations 2
smoothSolver:  Solving for Uz, Initial residual = 0.0125751, Final residual = 5.75565e-06, No Iterations 2
GAMG:  Solving for p, Initial residual = 0.105511, Final residual = 0.00786018, No Iterations 1
GAMG:  Solving for p, Initial residual = 0.0285796, Final residual = 0.00133074, No Iterations 2
GAMG:  Solving for p, Initial residual = 0.0176493, Final residual = 0.00122352, No Iterations 1
GAMG:  Solving for p, Initial residual = 0.00662618, Final residual = 0.000327141, No Iterations 2
GAMG:  Solving for p, Initial residual = 0.00541692, Final residual = 0.000411061, No Iterations 1
time step continuity errors : sum local = 0.062399, global = -0.0247505, cumulative = -2.33177
ExecutionTime = 2.88 s  ClockTime = 3 s

Time = 43

smoothSolver:  Solving for Ux, Initial residual = 0.0129927, Final residual = 6.09003e-06, No Iterations 2
smoothSolver:  Solving for Uy, Initial residual = 0.012658, Final residual = 5.95459e-06, No Iterations 2
smoothSolver:  Solving for Uz, Initial residual = 0.0126125, Final residual = 5.69405e-06, No Iterations 2
GAMG:  Solving for p, Initial residual = 0.0941723, Final residual = 0.00691429, No Iterations 1
GAMG:  Solving for p, Initial residual = 0.0255759, Final residual = 0.00248149, No Iterations 1
GAMG:  Solving for p, Initial residual = 0.011354, Final residual = 0.000527067, No Iterations 2
GAMG:  Solving for p, Initial residual = 0.00773427, Final residual = 0.000580556, No Iterations 1
GAMG:  Solving for p, Initial residual = 0.00329532, Final residual = 0.000172009, No Iterations 2
time step continuity errors : sum local = 0.0226699, global = -0.00356522, cumulative = -2.33533
ExecutionTime = 2.94 s  ClockTime = 3 s

Time = 44

smoothSolver:  Solving for Ux, Initial residual = 0.0126879, Final residual = 5.92123e-06, No Iterations 2
smoothSolver:  Solving for Uy, Initial residual = 0.0123668, Final residual = 5.77615e-06, No Iterations 2
smoothSolver:  Solving for Uz, Initial residual = 0.0124373, Final residual = 5.57591e-06, No Iterations 2
GAMG:  Solving for p, Initial residual = 0.0887226, Final residual = 0.0064749, No Iterations 1
GAMG:  Solving for p, Initial residual = 0.0247414, Final residual = 0.00234427, No Iterations 1
GAMG:  Solving for p, Initial residual = 0.0104141, Final residual = 0.000442057, No Iterations 2
GAMG:  Solving for p, Initial residual = 0.00694278, Final residual = 0.000496468, No Iterations 1
GAMG:  Solving for p, Initial residual = 0.00295749, Final residual = 0.000122447, No Iterations 2
time step continuity errors : sum local = 0.0139709, global = 0.00293606, cumulative = -2.3324
ExecutionTime = 3.01 s  ClockTime = 3 s

Time = 45

smoothSolver:  Solving for Ux, Initial residual = 0.0124075, Final residual = 5.74866e-06, No Iterations 2
smoothSolver:  Solving for Uy, Initial residual = 0.0121162, Final residual = 5.61045e-06, No Iterations 2
smoothSolver:  Solving for Uz, Initial residual = 0.0120074, Final residual = 5.37101e-06, No Iterations 2
GAMG:  Solving for p, Initial residual = 0.086763, Final residual = 0.00619046, No Iterations 1
GAMG:  Solving for p, Initial residual = 0.0258709, Final residual = 0.00258496, No Iterations 1
GAMG:  Solving for p, Initial residual = 0.014045, Final residual = 0.000643639, No Iterations 2
GAMG:  Solving for p, Initial residual = 0.0110762, Final residual = 0.000736622, No Iterations 1
GAMG:  Solving for p, Initial residual = 0.00430277, Final residual = 0.000193154, No Iterations 2
time step continuity errors : sum local = 0.0184416, global = 0.00296976, cumulative = -2.32943
ExecutionTime = 3.07 s  ClockTime = 3 s

Time = 46

smoothSolver:  Solving for Ux, Initial residual = 0.0121893, Final residual = 5.6191e-06, No Iterations 2
smoothSolver:  Solving for Uy, Initial residual = 0.0119234, Final residual = 5.50184e-06, No Iterations 2
smoothSolver:  Solving for Uz, Initial residual = 0.0114392, Final residual = 5.13681e-06, No Iterations 2
GAMG:  Solving for p, Initial residual = 0.0876197, Final residual = 0.00620497, No Iterations 1
GAMG:  Solving for p, Initial residual = 0.0282442, Final residual = 0.0012839, No Iterations 2
GAMG:  Solving for p, Initial residual = 0.0227558, Final residual = 0.0014965, No Iterations 1
GAMG:  Solving for p, Initial residual = 0.0081209, Final residual = 0.000365989, No Iterations 2
GAMG:  Solving for p, Initial residual = 0.00623291, Final residual = 0.000448779, No Iterations 1
time step continuity errors : sum local = 0.0428585, global = 0.0142714, cumulative = -2.31515
ExecutionTime = 3.13 s  ClockTime = 3 s

Time = 47

smoothSolver:  Solving for Ux, Initial residual = 0.0120283, Final residual = 5.47888e-06, No Iterations 2
smoothSolver:  Solving for Uy, Initial residual = 0.01179, Final residual = 5.38131e-06, No Iterations 2
smoothSolver:  Solving for Uz, Initial residual = 0.0109276, Final residual = 4.90674e-06, No Iterations 2
GAMG:  Solving for p, Initial residual = 0.0899504, Final residual = 0.00623834, No Iterations 1
GAMG:  Solving for p, Initial residual = 0.0290803, Final residual = 0.00132668, No Iterations 2
GAMG:  Solving for p, Initial residual = 0.0208293, Final residual = 0.00139247, No Iterations 1
GAMG:  Solving for p, Initial residual = 0.00756256, Final residual = 0.000350227, No Iterations 2
GAMG:  Solving for p, Initial residual = 0.00596196, Final residual = 0.000440071, No Iterations 1
time step continuity errors : sum local = 0.0450464, global = 0.0157254, cumulative = -2.29943
ExecutionTime = 3.2 s  ClockTime = 3 s

Time = 48

smoothSolver:  Solving for Ux, Initial residual = 0.0119082, Final residual = 5.40014e-06, No Iterations 2
smoothSolver:  Solving for Uy, Initial residual = 0.0116882, Final residual = 5.29598e-06, No Iterations 2
smoothSolver:  Solving for Uz, Initial residual = 0.0105663, Final residual = 4.73302e-06, No Iterations 2
GAMG:  Solving for p, Initial residual = 0.0934929, Final residual = 0.00625534, No Iterations 1
GAMG:  Solving for p, Initial residual = 0.0277256, Final residual = 0.00119596, No Iterations 2
GAMG:  Solving for p, Initial residual = 0.0181668, Final residual = 0.00124531, No Iterations 1
GAMG:  Solving for p, Initial residual = 0.00678851, Final residual = 0.000317644, No Iterations 2
GAMG:  Solving for p, Initial residual = 0.00540883, Final residual = 0.000407147, No Iterations 1
time step continuity errors : sum local = 0.0415734, global = 0.0147601, cumulative = -2.28467
ExecutionTime = 3.26 s  ClockTime = 3 s

Time = 49

smoothSolver:  Solving for Ux, Initial residual = 0.0117965, Final residual = 5.33594e-06, No Iterations 2
smoothSolver:  Solving for Uy, Initial residual = 0.0115914, Final residual = 5.20845e-06, No Iterations 2
smoothSolver:  Solving for Uz, Initial residual = 0.0103301, Final residual = 4.57812e-06, No Iterations 2
GAMG:  Solving for p, Initial residual = 0.0969708, Final residual = 0.00635316, No Iterations 1
GAMG:  Solving for p, Initial residual = 0.0261742, Final residual = 0.00251335, No Iterations 1
GAMG:  Solving for p, Initial residual = 0.0125664, Final residual = 0.000570764, No Iterations 2
GAMG:  Solving for p, Initial residual = 0.00873349, Final residual = 0.000641544, No Iterations 1
GAMG:  Solving for p, Initial residual = 0.00366778, Final residual = 0.00017568, No Iterations 2
time step continuity errors : sum local = 0.0167496, global = 0.00264724, cumulative = -2.28202
ExecutionTime = 3.32 s  ClockTime = 3 s

Time = 50

smoothSolver:  Solving for Ux, Initial residual = 0.0116741, Final residual = 5.26169e-06, No Iterations 2
smoothSolver:  Solving for Uy, Initial residual = 0.0114574, Final residual = 5.10984e-06, No Iterations 2
smoothSolver:  Solving for Uz, Initial residual = 0.0101512, Final residual = 4.47447e-06, No Iterations 2
GAMG:  Solving for p, Initial residual = 0.0987979, Final residual = 0.00642413, No Iterations 1
GAMG:  Solving for p, Initial residual = 0.0255394, Final residual = 0.00240348, No Iterations 1
GAMG:  Solving for p, Initial residual = 0.0101651, Final residual = 0.000417912, No Iterations 2
GAMG:  Solving for p, Initial residual = 0.00650255, Final residual = 0.000506693, No Iterations 1
GAMG:  Solving for p, Initial residual = 0.00294043, Final residual = 0.000132705, No Iterations 2
time step continuity errors : sum local = 0.0118674, global = 0.00176162, cumulative = -2.28026
ExecutionTime = 3.37 s  ClockTime = 3 s

Time = 51

smoothSolver:  Solving for Ux, Initial residual = 0.011536, Final residual = 5.181e-06, No Iterations 2
smoothSolver:  Solving for Uy, Initial residual = 0.0113003, Final residual = 5.02223e-06, No Iterations 2
smoothSolver:  Solving for Uz, Initial residual = 0.00998482, Final residual = 4.37942e-06, No Iterations 2
GAMG:  Solving for p, Initial residual = 0.0978783, Final residual = 0.00627867, No Iterations 1
GAMG:  Solving for p, Initial residual = 0.0248761, Final residual = 0.00229123, No Iterations 1
GAMG:  Solving for p, Initial residual = 0.00959141, Final residual = 0.000388573, No Iterations 2
GAMG:  Solving for p, Initial residual = 0.00567285, Final residual = 0.000408769, No Iterations 1
GAMG:  Solving for p, Initial residual = 0.00245942, Final residual = 0.000102158, No Iterations 2
time step continuity errors : sum local = 0.0096538, global = -0.00174986, cumulative = -2.28201
ExecutionTime = 3.44 s  ClockTime = 3 s

Time = 52

smoothSolver:  Solving for Ux, Initial residual = 0.0113819, Final residual = 5.11159e-06, No Iterations 2
smoothSolver:  Solving for Uy, Initial residual = 0.011119, Final residual = 4.94946e-06, No Iterations 2
smoothSolver:  Solving for Uz, Initial residual = 0.00981656, Final residual = 4.29237e-06, No Iterations 2
GAMG:  Solving for p, Initial residual = 0.0951472, Final residual = 0.00603935, No Iterations 1
GAMG:  Solving for p, Initial residual = 0.0237724, Final residual = 0.00219847, No Iterations 1
GAMG:  Solving for p, Initial residual = 0.00967436, Final residual = 0.000456545, No Iterations 2
GAMG:  Solving for p, Initial residual = 0.00661566, Final residual = 0.000450219, No Iterations 1
GAMG:  Solving for p, Initial residual = 0.00261161, Final residual = 0.000117801, No Iterations 2
time step continuity errors : sum local = 0.0120453, global = -0.00192049, cumulative = -2.28393
ExecutionTime = 3.51 s  ClockTime = 3 s

Time = 53

smoothSolver:  Solving for Ux, Initial residual = 0.0112131, Final residual = 5.02071e-06, No Iterations 2
smoothSolver:  Solving for Uy, Initial residual = 0.010935, Final residual = 4.87123e-06, No Iterations 2
smoothSolver:  Solving for Uz, Initial residual = 0.0096471, Final residual = 4.19527e-06, No Iterations 2
GAMG:  Solving for p, Initial residual = 0.0908442, Final residual = 0.0056928, No Iterations 1
GAMG:  Solving for p, Initial residual = 0.0223947, Final residual = 0.0021846, No Iterations 1
GAMG:  Solving for p, Initial residual = 0.00971425, Final residual = 0.000466275, No Iterations 2
GAMG:  Solving for p, Initial residual = 0.00675507, Final residual = 0.000469177, No Iterations 1
GAMG:  Solving for p, Initial residual = 0.00266601, Final residual = 0.000125979, No Iterations 2
time step continuity errors : sum local = 0.0135748, global = -0.00221844, cumulative = -2.28615
ExecutionTime = 3.57 s  ClockTime = 3 s

Time = 54

smoothSolver:  Solving for Ux, Initial residual = 0.0110444, Final residual = 5.00803e-06, No Iterations 2
smoothSolver:  Solving for Uy, Initial residual = 0.0107526, Final residual = 4.81555e-06, No Iterations 2
smoothSolver:  Solving for Uz, Initial residual = 0.00949437, Final residual = 4.13239e-06, No Iterations 2
GAMG:  Solving for p, Initial residual = 0.0859949, Final residual = 0.0053087, No Iterations 1
GAMG:  Solving for p, Initial residual = 0.0211231, Final residual = 0.00205884, No Iterations 1
GAMG:  Solving for p, Initial residual = 0.0092223, Final residual = 0.000444448, No Iterations 2
GAMG:  Solving for p, Initial residual = 0.00643661, Final residual = 0.000459254, No Iterations 1
GAMG:  Solving for p, Initial residual = 0.00258706, Final residual = 0.000125737, No Iterations 2
time step continuity errors : sum local = 0.0138876, global = -0.00228804, cumulative = -2.28844
ExecutionTime = 3.64 s  ClockTime = 3 s

Time = 55

smoothSolver:  Solving for Ux, Initial residual = 0.0108805, Final residual = 4.97514e-06, No Iterations 2
smoothSolver:  Solving for Uy, Initial residual = 0.0105718, Final residual = 4.75481e-06, No Iterations 2
smoothSolver:  Solving for Uz, Initial residual = 0.00934574, Final residual = 4.04359e-06, No Iterations 2
GAMG:  Solving for p, Initial residual = 0.0815418, Final residual = 0.00494596, No Iterations 1
GAMG:  Solving for p, Initial residual = 0.0200346, Final residual = 0.00186045, No Iterations 1
GAMG:  Solving for p, Initial residual = 0.00833245, Final residual = 0.000397485, No Iterations 2
GAMG:  Solving for p, Initial residual = 0.00576841, Final residual = 0.000424037, No Iterations 1
GAMG:  Solving for p, Initial residual = 0.00238341, Final residual = 0.000118008, No Iterations 2
time step continuity errors : sum local = 0.0130204, global = -0.00213233, cumulative = -2.29057
ExecutionTime = 3.7 s  ClockTime = 3 s

Time = 56

smoothSolver:  Solving for Ux, Initial residual = 0.0107155, Final residual = 4.9096e-06, No Iterations 2
smoothSolver:  Solving for Uy, Initial residual = 0.0103938, Final residual = 4.67345e-06, No Iterations 2
smoothSolver:  Solving for Uz, Initial residual = 0.00919751, Final residual = 3.96163e-06, No Iterations 2
GAMG:  Solving for p, Initial residual = 0.0780105, Final residual = 0.00464648, No Iterations 1
GAMG:  Solving for p, Initial residual = 0.0192559, Final residual = 0.00170275, No Iterations 1
GAMG:  Solving for p, Initial residual = 0.00744239, Final residual = 0.000339433, No Iterations 2
GAMG:  Solving for p, Initial residual = 0.00484399, Final residual = 0.000370819, No Iterations 1
GAMG:  Solving for p, Initial residual = 0.0020968, Final residual = 0.00010486, No Iterations 2
time step continuity errors : sum local = 0.0113209, global = -0.00185492, cumulative = -2.29242
ExecutionTime = 3.76 s  ClockTime = 4 s

Time = 57

smoothSolver:  Solving for Ux, Initial residual = 0.0105569, Final residual = 4.83847e-06, No Iterations 2
smoothSolver:  Solving for Uy, Initial residual = 0.0102375, Final residual = 4.57921e-06, No Iterations 2
smoothSolver:  Solving for Uz, Initial residual = 0.00903897, Final residual = 3.88543e-06, No Iterations 2
GAMG:  Solving for p, Initial residual = 0.0757564, Final residual = 0.00444291, No Iterations 1
GAMG:  Solving for p, Initial residual = 0.0187816, Final residual = 0.00162709, No Iterations 1
GAMG:  Solving for p, Initial residual = 0.00700088, Final residual = 0.000270061, No Iterations 2
GAMG:  Solving for p, Initial residual = 0.00389691, Final residual = 0.000314618, No Iterations 1
GAMG:  Solving for p, Initial residual = 0.00180934, Final residual = 8.62425e-05, No Iterations 2
time step continuity errors : sum local = 0.00904769, global = -0.00158068, cumulative = -2.294
ExecutionTime = 3.82 s  ClockTime = 4 s

Time = 58

smoothSolver:  Solving for Ux, Initial residual = 0.0104046, Final residual = 4.75739e-06, No Iterations 2
smoothSolver:  Solving for Uy, Initial residual = 0.0101, Final residual = 4.50309e-06, No Iterations 2
smoothSolver:  Solving for Uz, Initial residual = 0.00887721, Final residual = 3.78501e-06, No Iterations 2
GAMG:  Solving for p, Initial residual = 0.0743919, Final residual = 0.00431962, No Iterations 1
GAMG:  Solving for p, Initial residual = 0.0185409, Final residual = 0.00155918, No Iterations 1
GAMG:  Solving for p, Initial residual = 0.00690218, Final residual = 0.000231335, No Iterations 2
GAMG:  Solving for p, Initial residual = 0.00379323, Final residual = 0.000279235, No Iterations 1
GAMG:  Solving for p, Initial residual = 0.00173422, Final residual = 6.61737e-05, No Iterations 2
time step continuity errors : sum local = 0.00677157, global = 0.00112546, cumulative = -2.29288
ExecutionTime = 3.89 s  ClockTime = 4 s

Time = 59

smoothSolver:  Solving for Ux, Initial residual = 0.0102744, Final residual = 4.70151e-06, No Iterations 2
smoothSolver:  Solving for Uy, Initial residual = 0.00997904, Final residual = 4.44326e-06, No Iterations 2
smoothSolver:  Solving for Uz, Initial residual = 0.00870912, Final residual = 3.70645e-06, No Iterations 2
GAMG:  Solving for p, Initial residual = 0.0738, Final residual = 0.00425927, No Iterations 1
GAMG:  Solving for p, Initial residual = 0.0184316, Final residual = 0.00153491, No Iterations 1
GAMG:  Solving for p, Initial residual = 0.00699108, Final residual = 0.000289609, No Iterations 2
GAMG:  Solving for p, Initial residual = 0.004452, Final residual = 0.000315111, No Iterations 1
GAMG:  Solving for p, Initial residual = 0.00190358, Final residual = 8.34545e-05, No Iterations 2
time step continuity errors : sum local = 0.00830405, global = 0.00110917, cumulative = -2.29177
ExecutionTime = 3.95 s  ClockTime = 4 s

Time = 60

smoothSolver:  Solving for Ux, Initial residual = 0.0101609, Final residual = 4.65461e-06, No Iterations 2
smoothSolver:  Solving for Uy, Initial residual = 0.00987861, Final residual = 4.39456e-06, No Iterations 2
smoothSolver:  Solving for Uz, Initial residual = 0.00854082, Final residual = 3.62888e-06, No Iterations 2
GAMG:  Solving for p, Initial residual = 0.0736331, Final residual = 0.00423687, No Iterations 1
GAMG:  Solving for p, Initial residual = 0.0183996, Final residual = 0.00155708, No Iterations 1
GAMG:  Solving for p, Initial residual = 0.00710791, Final residual = 0.000314299, No Iterations 2
GAMG:  Solving for p, Initial residual = 0.00482827, Final residual = 0.000343739, No Iterations 1
GAMG:  Solving for p, Initial residual = 0.00202782, Final residual = 9.23016e-05, No Iterations 2
time step continuity errors : sum local = 0.00902323, global = 0.00119807, cumulative = -2.29057
ExecutionTime = 4.01 s  ClockTime = 4 s

Time = 61

smoothSolver:  Solving for Ux, Initial residual = 0.0100527, Final residual = 4.58985e-06, No Iterations 2
smoothSolver:  Solving for Uy, Initial residual = 0.00978433, Final residual = 4.33635e-06, No Iterations 2
smoothSolver:  Solving for Uz, Initial residual = 0.00838556, Final residual = 3.5658e-06, No Iterations 2
GAMG:  Solving for p, Initial residual = 0.0737698, Final residual = 0.00426461, No Iterations 1
GAMG:  Solving for p, Initial residual = 0.018445, Final residual = 0.00158759, No Iterations 1
GAMG:  Solving for p, Initial residual = 0.00710022, Final residual = 0.000318391, No Iterations 2
GAMG:  Solving for p, Initial residual = 0.00480724, Final residual = 0.000350086, No Iterations 1
GAMG:  Solving for p, Initial residual = 0.00203873, Final residual = 9.5028e-05, No Iterations 2
time step continuity errors : sum local = 0.00923128, global = 0.0012182, cumulative = -2.28935
ExecutionTime = 4.07 s  ClockTime = 4 s

Time = 62

smoothSolver:  Solving for Ux, Initial residual = 0.00995265, Final residual = 4.54276e-06, No Iterations 2
smoothSolver:  Solving for Uy, Initial residual = 0.00968542, Final residual = 4.33326e-06, No Iterations 2
smoothSolver:  Solving for Uz, Initial residual = 0.00824811, Final residual = 3.49482e-06, No Iterations 2
GAMG:  Solving for p, Initial residual = 0.0740207, Final residual = 0.00432314, No Iterations 1
GAMG:  Solving for p, Initial residual = 0.0185437, Final residual = 0.00161643, No Iterations 1
GAMG:  Solving for p, Initial residual = 0.00700581, Final residual = 0.000307832, No Iterations 2
GAMG:  Solving for p, Initial residual = 0.00445078, Final residual = 0.000336592, No Iterations 1
GAMG:  Solving for p, Initial residual = 0.00194409, Final residual = 9.25806e-05, No Iterations 2
time step continuity errors : sum local = 0.00902204, global = 0.00115727, cumulative = -2.2882
ExecutionTime = 4.14 s  ClockTime = 4 s

Time = 63

smoothSolver:  Solving for Ux, Initial residual = 0.00986065, Final residual = 4.50014e-06, No Iterations 2
smoothSolver:  Solving for Uy, Initial residual = 0.00957876, Final residual = 4.2895e-06, No Iterations 2
smoothSolver:  Solving for Uz, Initial residual = 0.00811834, Final residual = 3.4285e-06, No Iterations 2
GAMG:  Solving for p, Initial residual = 0.0736152, Final residual = 0.0043277, No Iterations 1
GAMG:  Solving for p, Initial residual = 0.0183475, Final residual = 0.00159637, No Iterations 1
GAMG:  Solving for p, Initial residual = 0.00686759, Final residual = 0.00027412, No Iterations 2
GAMG:  Solving for p, Initial residual = 0.00388324, Final residual = 0.000305031, No Iterations 1
GAMG:  Solving for p, Initial residual = 0.00177543, Final residual = 8.16158e-05, No Iterations 2
time step continuity errors : sum local = 0.0080386, global = 0.0010098, cumulative = -2.28719
ExecutionTime = 4.2 s  ClockTime = 4 s

Time = 64

smoothSolver:  Solving for Ux, Initial residual = 0.00977176, Final residual = 4.45732e-06, No Iterations 2
smoothSolver:  Solving for Uy, Initial residual = 0.00947328, Final residual = 4.26092e-06, No Iterations 2
smoothSolver:  Solving for Uz, Initial residual = 0.00799871, Final residual = 3.40329e-06, No Iterations 2
GAMG:  Solving for p, Initial residual = 0.0729837, Final residual = 0.0042729, No Iterations 1
GAMG:  Solving for p, Initial residual = 0.0180833, Final residual = 0.00155647, No Iterations 1
GAMG:  Solving for p, Initial residual = 0.00674347, Final residual = 0.000253833, No Iterations 2
GAMG:  Solving for p, Initial residual = 0.00352031, Final residual = 0.000283274, No Iterations 1
GAMG:  Solving for p, Initial residual = 0.00164366, Final residual = 6.60338e-05, No Iterations 2
time step continuity errors : sum local = 0.00656938, global = 0.000643524, cumulative = -2.28654
ExecutionTime = 4.26 s  ClockTime = 4 s

Time = 65

smoothSolver:  Solving for Ux, Initial residual = 0.00967641, Final residual = 4.42231e-06, No Iterations 2
smoothSolver:  Solving for Uy, Initial residual = 0.00936121, Final residual = 4.22359e-06, No Iterations 2
smoothSolver:  Solving for Uz, Initial residual = 0.00787165, Final residual = 3.35116e-06, No Iterations 2
GAMG:  Solving for p, Initial residual = 0.0720331, Final residual = 0.00418657, No Iterations 1
GAMG:  Solving for p, Initial residual = 0.0178193, Final residual = 0.00151107, No Iterations 1
GAMG:  Solving for p, Initial residual = 0.00665583, Final residual = 0.000236802, No Iterations 2
GAMG:  Solving for p, Initial residual = 0.00347911, Final residual = 0.000262393, No Iterations 1
GAMG:  Solving for p, Initial residual = 0.00160483, Final residual = 6.12235e-05, No Iterations 2
time step continuity errors : sum local = 0.00614682, global = -0.00160177, cumulative = -2.28815
ExecutionTime = 4.32 s  ClockTime = 4 s

Time = 66

smoothSolver:  Solving for Ux, Initial residual = 0.0095785, Final residual = 4.41021e-06, No Iterations 2
smoothSolver:  Solving for Uy, Initial residual = 0.00924705, Final residual = 4.18243e-06, No Iterations 2
smoothSolver:  Solving for Uz, Initial residual = 0.00774904, Final residual = 3.30525e-06, No Iterations 2
GAMG:  Solving for p, Initial residual = 0.0710083, Final residual = 0.00409521, No Iterations 1
GAMG:  Solving for p, Initial residual = 0.0175318, Final residual = 0.0014612, No Iterations 1
GAMG:  Solving for p, Initial residual = 0.00658343, Final residual = 0.000246242, No Iterations 2
GAMG:  Solving for p, Initial residual = 0.00358396, Final residual = 0.000264924, No Iterations 1
GAMG:  Solving for p, Initial residual = 0.00162122, Final residual = 7.19331e-05, No Iterations 2
time step continuity errors : sum local = 0.00730007, global = -0.00152771, cumulative = -2.28967
ExecutionTime = 4.39 s  ClockTime = 4 s

Time = 67

smoothSolver:  Solving for Ux, Initial residual = 0.00947869, Final residual = 4.36151e-06, No Iterations 2
smoothSolver:  Solving for Uy, Initial residual = 0.00912998, Final residual = 4.11531e-06, No Iterations 2
smoothSolver:  Solving for Uz, Initial residual = 0.0076249, Final residual = 3.24248e-06, No Iterations 2
GAMG:  Solving for p, Initial residual = 0.0697032, Final residual = 0.00401012, No Iterations 1
GAMG:  Solving for p, Initial residual = 0.0172085, Final residual = 0.00142568, No Iterations 1
GAMG:  Solving for p, Initial residual = 0.00647732, Final residual = 0.000256461, No Iterations 2
GAMG:  Solving for p, Initial residual = 0.00363739, Final residual = 0.000271678, No Iterations 1
GAMG:  Solving for p, Initial residual = 0.00162859, Final residual = 7.60081e-05, No Iterations 2
time step continuity errors : sum local = 0.00778795, global = -0.00149268, cumulative = -2.29117
ExecutionTime = 4.45 s  ClockTime = 4 s

Time = 68

smoothSolver:  Solving for Ux, Initial residual = 0.00938538, Final residual = 4.32766e-06, No Iterations 2
smoothSolver:  Solving for Uy, Initial residual = 0.00902137, Final residual = 4.05131e-06, No Iterations 2
smoothSolver:  Solving for Uz, Initial residual = 0.00750498, Final residual = 3.19476e-06, No Iterations 2
GAMG:  Solving for p, Initial residual = 0.0685145, Final residual = 0.00394953, No Iterations 1
GAMG:  Solving for p, Initial residual = 0.0169234, Final residual = 0.00139293, No Iterations 1
GAMG:  Solving for p, Initial residual = 0.00635021, Final residual = 0.000248933, No Iterations 2
GAMG:  Solving for p, Initial residual = 0.00355667, Final residual = 0.000268575, No Iterations 1
GAMG:  Solving for p, Initial residual = 0.00159763, Final residual = 7.46606e-05, No Iterations 2
time step continuity errors : sum local = 0.00768446, global = -0.00142603, cumulative = -2.29259
ExecutionTime = 4.52 s  ClockTime = 4 s

Time = 69

smoothSolver:  Solving for Ux, Initial residual = 0.00929268, Final residual = 4.27542e-06, No Iterations 2
smoothSolver:  Solving for Uy, Initial residual = 0.00891772, Final residual = 4.01128e-06, No Iterations 2
smoothSolver:  Solving for Uz, Initial residual = 0.00738967, Final residual = 3.14767e-06, No Iterations 2
GAMG:  Solving for p, Initial residual = 0.0674084, Final residual = 0.00388978, No Iterations 1
GAMG:  Solving for p, Initial residual = 0.0166851, Final residual = 0.00136196, No Iterations 1
GAMG:  Solving for p, Initial residual = 0.00622663, Final residual = 0.000228247, No Iterations 2
GAMG:  Solving for p, Initial residual = 0.00337779, Final residual = 0.000258944, No Iterations 1
GAMG:  Solving for p, Initial residual = 0.00154087, Final residual = 7.04208e-05, No Iterations 2
time step continuity errors : sum local = 0.0072514, global = -0.00138956, cumulative = -2.29398
ExecutionTime = 4.58 s  ClockTime = 4 s

Time = 70

smoothSolver:  Solving for Ux, Initial residual = 0.00920136, Final residual = 4.21347e-06, No Iterations 2
smoothSolver:  Solving for Uy, Initial residual = 0.00881372, Final residual = 3.96862e-06, No Iterations 2
smoothSolver:  Solving for Uz, Initial residual = 0.00727085, Final residual = 3.07936e-06, No Iterations 2
GAMG:  Solving for p, Initial residual = 0.0664055, Final residual = 0.00383408, No Iterations 1
GAMG:  Solving for p, Initial residual = 0.0164786, Final residual = 0.00133499, No Iterations 1
GAMG:  Solving for p, Initial residual = 0.00610883, Final residual = 0.000200514, No Iterations 2
GAMG:  Solving for p, Initial residual = 0.00318072, Final residual = 0.000243512, No Iterations 1
GAMG:  Solving for p, Initial residual = 0.00147519, Final residual = 6.18501e-05, No Iterations 2
time step continuity errors : sum local = 0.00636144, global = -0.00137816, cumulative = -2.29536
ExecutionTime = 4.64 s  ClockTime = 4 s

Time = 71

smoothSolver:  Solving for Ux, Initial residual = 0.00910434, Final residual = 4.18132e-06, No Iterations 2
smoothSolver:  Solving for Uy, Initial residual = 0.00871601, Final residual = 3.95522e-06, No Iterations 2
smoothSolver:  Solving for Uz, Initial residual = 0.00715676, Final residual = 3.03873e-06, No Iterations 2
GAMG:  Solving for p, Initial residual = 0.0653024, Final residual = 0.00376249, No Iterations 1
GAMG:  Solving for p, Initial residual = 0.01627, Final residual = 0.00130736, No Iterations 1
GAMG:  Solving for p, Initial residual = 0.00600479, Final residual = 0.000595638, No Iterations 1
GAMG:  Solving for p, Initial residual = 0.00284125, Final residual = 0.000101578, No Iterations 2
GAMG:  Solving for p, Initial residual = 0.00173925, Final residual = 0.000136382, No Iterations 1
time step continuity errors : sum local = 0.0140099, global = -0.00278622, cumulative = -2.29815
ExecutionTime = 4.7 s  ClockTime = 4 s

Time = 72

smoothSolver:  Solving for Ux, Initial residual = 0.00900896, Final residual = 4.12347e-06, No Iterations 2
smoothSolver:  Solving for Uy, Initial residual = 0.00862353, Final residual = 3.89795e-06, No Iterations 2
smoothSolver:  Solving for Uz, Initial residual = 0.0070445, Final residual = 2.98065e-06, No Iterations 2
GAMG:  Solving for p, Initial residual = 0.0642002, Final residual = 0.00369859, No Iterations 1
GAMG:  Solving for p, Initial residual = 0.0160925, Final residual = 0.00129252, No Iterations 1
GAMG:  Solving for p, Initial residual = 0.00593964, Final residual = 0.000585806, No Iterations 1
GAMG:  Solving for p, Initial residual = 0.00281405, Final residual = 9.39358e-05, No Iterations 2
GAMG:  Solving for p, Initial residual = 0.00170393, Final residual = 0.000129074, No Iterations 1
time step continuity errors : sum local = 0.0132163, global = -0.000463303, cumulative = -2.29861
ExecutionTime = 4.76 s  ClockTime = 5 s

Time = 73

smoothSolver:  Solving for Ux, Initial residual = 0.00891872, Final residual = 4.11133e-06, No Iterations 2
smoothSolver:  Solving for Uy, Initial residual = 0.00853063, Final residual = 3.89067e-06, No Iterations 2
smoothSolver:  Solving for Uz, Initial residual = 0.00693716, Final residual = 2.94018e-06, No Iterations 2
GAMG:  Solving for p, Initial residual = 0.063323, Final residual = 0.00366159, No Iterations 1
GAMG:  Solving for p, Initial residual = 0.0158693, Final residual = 0.00128716, No Iterations 1
GAMG:  Solving for p, Initial residual = 0.00587505, Final residual = 0.000584535, No Iterations 1
GAMG:  Solving for p, Initial residual = 0.00279392, Final residual = 0.000101745, No Iterations 2
GAMG:  Solving for p, Initial residual = 0.00172336, Final residual = 0.00013152, No Iterations 1
time step continuity errors : sum local = 0.0134223, global = 0.0012715, cumulative = -2.29734
ExecutionTime = 4.82 s  ClockTime = 5 s

Time = 74

smoothSolver:  Solving for Ux, Initial residual = 0.00883249, Final residual = 4.07647e-06, No Iterations 2
smoothSolver:  Solving for Uy, Initial residual = 0.00843536, Final residual = 3.85706e-06, No Iterations 2
smoothSolver:  Solving for Uz, Initial residual = 0.00683164, Final residual = 2.89718e-06, No Iterations 2
GAMG:  Solving for p, Initial residual = 0.062613, Final residual = 0.00363089, No Iterations 1
GAMG:  Solving for p, Initial residual = 0.0156838, Final residual = 0.00128564, No Iterations 1
GAMG:  Solving for p, Initial residual = 0.00582062, Final residual = 0.000188035, No Iterations 2
GAMG:  Solving for p, Initial residual = 0.00303801, Final residual = 0.00022579, No Iterations 1
GAMG:  Solving for p, Initial residual = 0.00140464, Final residual = 5.29295e-05, No Iterations 2
time step continuity errors : sum local = 0.0053913, global = 0.00097038, cumulative = -2.29637
ExecutionTime = 4.88 s  ClockTime = 5 s

Time = 75

smoothSolver:  Solving for Ux, Initial residual = 0.00874413, Final residual = 4.02539e-06, No Iterations 2
smoothSolver:  Solving for Uy, Initial residual = 0.00833667, Final residual = 3.82388e-06, No Iterations 2
smoothSolver:  Solving for Uz, Initial residual = 0.00673258, Final residual = 2.8409e-06, No Iterations 2
GAMG:  Solving for p, Initial residual = 0.0617912, Final residual = 0.003583, No Iterations 1
GAMG:  Solving for p, Initial residual = 0.0154742, Final residual = 0.0012783, No Iterations 1
GAMG:  Solving for p, Initial residual = 0.00574418, Final residual = 0.000190979, No Iterations 2
GAMG:  Solving for p, Initial residual = 0.00299971, Final residual = 0.000225818, No Iterations 1
GAMG:  Solving for p, Initial residual = 0.00139153, Final residual = 5.45969e-05, No Iterations 2
time step continuity errors : sum local = 0.00555842, global = 0.000965677, cumulative = -2.2954
ExecutionTime = 4.94 s  ClockTime = 5 s

Time = 76

smoothSolver:  Solving for Ux, Initial residual = 0.0086589, Final residual = 3.9806e-06, No Iterations 2
smoothSolver:  Solving for Uy, Initial residual = 0.00824368, Final residual = 3.77357e-06, No Iterations 2
smoothSolver:  Solving for Uz, Initial residual = 0.00663332, Final residual = 2.79438e-06, No Iterations 2
GAMG:  Solving for p, Initial residual = 0.0611403, Final residual = 0.00352107, No Iterations 1
GAMG:  Solving for p, Initial residual = 0.0153006, Final residual = 0.00126499, No Iterations 1
GAMG:  Solving for p, Initial residual = 0.00567268, Final residual = 0.0001861, No Iterations 2
GAMG:  Solving for p, Initial residual = 0.00293075, Final residual = 0.000220855, No Iterations 1
GAMG:  Solving for p, Initial residual = 0.00136832, Final residual = 5.2027e-05, No Iterations 2
time step continuity errors : sum local = 0.00530043, global = 0.000913847, cumulative = -2.29449
ExecutionTime = 5.01 s  ClockTime = 5 s

Time = 77

smoothSolver:  Solving for Ux, Initial residual = 0.0085727, Final residual = 3.94472e-06, No Iterations 2
smoothSolver:  Solving for Uy, Initial residual = 0.0081514, Final residual = 3.72063e-06, No Iterations 2
smoothSolver:  Solving for Uz, Initial residual = 0.00653539, Final residual = 2.74395e-06, No Iterations 2
GAMG:  Solving for p, Initial residual = 0.0605675, Final residual = 0.00347324, No Iterations 1
GAMG:  Solving for p, Initial residual = 0.0151727, Final residual = 0.00125007, No Iterations 1
GAMG:  Solving for p, Initial residual = 0.00561206, Final residual = 0.000175591, No Iterations 2
GAMG:  Solving for p, Initial residual = 0.0028706, Final residual = 0.000212492, No Iterations 1
GAMG:  Solving for p, Initial residual = 0.00134711, Final residual = 4.66817e-05, No Iterations 2
time step continuity errors : sum local = 0.00476316, global = 0.000748877, cumulative = -2.29374
ExecutionTime = 5.07 s  ClockTime = 5 s

Time = 78

smoothSolver:  Solving for Ux, Initial residual = 0.00848952, Final residual = 3.90584e-06, No Iterations 2
smoothSolver:  Solving for Uy, Initial residual = 0.00805429, Final residual = 3.67344e-06, No Iterations 2
smoothSolver:  Solving for Uz, Initial residual = 0.00643685, Final residual = 2.69581e-06, No Iterations 2
GAMG:  Solving for p, Initial residual = 0.0600567, Final residual = 0.00344023, No Iterations 1
GAMG:  Solving for p, Initial residual = 0.0150962, Final residual = 0.00123135, No Iterations 1
GAMG:  Solving for p, Initial residual = 0.00557413, Final residual = 0.000554706, No Iterations 1
GAMG:  Solving for p, Initial residual = 0.0026427, Final residual = 9.55748e-05, No Iterations 2
GAMG:  Solving for p, Initial residual = 0.00158216, Final residual = 0.000120189, No Iterations 1
time step continuity errors : sum local = 0.0123055, global = 0.000267608, cumulative = -2.29347
ExecutionTime = 5.13 s  ClockTime = 5 s

Time = 79

smoothSolver:  Solving for Ux, Initial residual = 0.00840526, Final residual = 3.87829e-06, No Iterations 2
smoothSolver:  Solving for Uy, Initial residual = 0.0079632, Final residual = 3.63419e-06, No Iterations 2
smoothSolver:  Solving for Uz, Initial residual = 0.00633708, Final residual = 2.65015e-06, No Iterations 2
GAMG:  Solving for p, Initial residual = 0.0594638, Final residual = 0.00341636, No Iterations 1
GAMG:  Solving for p, Initial residual = 0.014983, Final residual = 0.00121379, No Iterations 1
GAMG:  Solving for p, Initial residual = 0.00555263, Final residual = 0.000545809, No Iterations 1
GAMG:  Solving for p, Initial residual = 0.00262977, Final residual = 9.25159e-05, No Iterations 2
GAMG:  Solving for p, Initial residual = 0.00158034, Final residual = 0.000117903, No Iterations 1
time step continuity errors : sum local = 0.0121128, global = -0.000792766, cumulative = -2.29426
ExecutionTime = 5.19 s  ClockTime = 5 s

Time = 80

smoothSolver:  Solving for Ux, Initial residual = 0.00832402, Final residual = 3.83505e-06, No Iterations 2
smoothSolver:  Solving for Uy, Initial residual = 0.00787101, Final residual = 3.60969e-06, No Iterations 2
smoothSolver:  Solving for Uz, Initial residual = 0.00623881, Final residual = 2.60667e-06, No Iterations 2
GAMG:  Solving for p, Initial residual = 0.0586275, Final residual = 0.00337435, No Iterations 1
GAMG:  Solving for p, Initial residual = 0.0147848, Final residual = 0.0011954, No Iterations 1
GAMG:  Solving for p, Initial residual = 0.00548066, Final residual = 0.00053924, No Iterations 1
GAMG:  Solving for p, Initial residual = 0.00259324, Final residual = 9.18513e-05, No Iterations 2
GAMG:  Solving for p, Initial residual = 0.00156019, Final residual = 0.000116484, No Iterations 1
time step continuity errors : sum local = 0.0120449, global = -0.00169765, cumulative = -2.29596
ExecutionTime = 5.25 s  ClockTime = 5 s

Time = 81

smoothSolver:  Solving for Ux, Initial residual = 0.00824541, Final residual = 3.78887e-06, No Iterations 2
smoothSolver:  Solving for Uy, Initial residual = 0.00778015, Final residual = 3.56086e-06, No Iterations 2
smoothSolver:  Solving for Uz, Initial residual = 0.00613853, Final residual = 2.55327e-06, No Iterations 2
GAMG:  Solving for p, Initial residual = 0.0580968, Final residual = 0.00333833, No Iterations 1
GAMG:  Solving for p, Initial residual = 0.0145928, Final residual = 0.00117563, No Iterations 1
GAMG:  Solving for p, Initial residual = 0.00541809, Final residual = 0.000531285, No Iterations 1
GAMG:  Solving for p, Initial residual = 0.00255777, Final residual = 9.37064e-05, No Iterations 2
GAMG:  Solving for p, Initial residual = 0.00154572, Final residual = 0.000116557, No Iterations 1
time step continuity errors : sum local = 0.0120687, global = -0.00229602, cumulative = -2.29826
ExecutionTime = 5.31 s  ClockTime = 5 s

Time = 82

smoothSolver:  Solving for Ux, Initial residual = 0.00815552, Final residual = 3.75103e-06, No Iterations 2
smoothSolver:  Solving for Uy, Initial residual = 0.00768947, Final residual = 3.53995e-06, No Iterations 2
smoothSolver:  Solving for Uz, Initial residual = 0.00604025, Final residual = 2.51582e-06, No Iterations 2
GAMG:  Solving for p, Initial residual = 0.0573647, Final residual = 0.0032734, No Iterations 1
GAMG:  Solving for p, Initial residual = 0.0143826, Final residual = 0.00114665, No Iterations 1
GAMG:  Solving for p, Initial residual = 0.00532603, Final residual = 0.000518695, No Iterations 1
GAMG:  Solving for p, Initial residual = 0.00250486, Final residual = 9.43038e-05, No Iterations 2
GAMG:  Solving for p, Initial residual = 0.00151431, Final residual = 0.000115983, No Iterations 1
time step continuity errors : sum local = 0.0120401, global = -0.00260695, cumulative = -2.30086
ExecutionTime = 5.36 s  ClockTime = 5 s

Time = 83

[...]
GAMG:  Solving for p, Initial residual = 0.00775436, Final residual = 0.000708915, No Iterations 1
GAMG:  Solving for p, Initial residual = 0.00399029, Final residual = 0.000394149, No Iterations 1
GAMG:  Solving for p, Initial residual = 0.00242593, Final residual = 0.000178297, No Iterations 2
GAMG:  Solving for p, Initial residual = 0.002167, Final residual = 0.000177812, No Iterations 1
time step continuity errors : sum local = 1.20129e+07, global = 3.19855e+06, cumulative = 7.3118e+07
ExecutionTime = 125.6 s  ClockTime = 125 s

Time = 1981

smoothSolver:  Solving for Ux, Initial residual = 0.0190938, Final residual = 8.4943e-06, No Iterations 2
smoothSolver:  Solving for Uy, Initial residual = 0.0181315, Final residual = 1.27011e-05, No Iterations 2
smoothSolver:  Solving for Uz, Initial residual = 0.0135669, Final residual = 6.8161e-06, No Iterations 2
GAMG:  Solving for p, Initial residual = 0.0205072, Final residual = 0.00154438, No Iterations 1
GAMG:  Solving for p, Initial residual = 0.0074108, Final residual = 0.000659599, No Iterations 1
GAMG:  Solving for p, Initial residual = 0.00363152, Final residual = 0.000199636, No Iterations 2
GAMG:  Solving for p, Initial residual = 0.00271557, Final residual = 0.000221841, No Iterations 1
GAMG:  Solving for p, Initial residual = 0.00155902, Final residual = 0.000103998, No Iterations 2
time step continuity errors : sum local = 7.45403e+06, global = 2.14741e+06, cumulative = 7.52654e+07
ExecutionTime = 125.66 s  ClockTime = 125 s

Time = 1982

smoothSolver:  Solving for Ux, Initial residual = 0.0192896, Final residual = 8.50277e-06, No Iterations 2
smoothSolver:  Solving for Uy, Initial residual = 0.0176403, Final residual = 1.22853e-05, No Iterations 2
smoothSolver:  Solving for Uz, Initial residual = 0.0136613, Final residual = 6.44988e-06, No Iterations 2
GAMG:  Solving for p, Initial residual = 0.0211847, Final residual = 0.00156203, No Iterations 1
GAMG:  Solving for p, Initial residual = 0.0075943, Final residual = 0.000660655, No Iterations 1
GAMG:  Solving for p, Initial residual = 0.00381846, Final residual = 0.000376274, No Iterations 1
GAMG:  Solving for p, Initial residual = 0.00237838, Final residual = 0.000160207, No Iterations 2
GAMG:  Solving for p, Initial residual = 0.00207078, Final residual = 0.000169333, No Iterations 1
time step continuity errors : sum local = 1.16969e+07, global = 3.39631e+06, cumulative = 7.86617e+07
ExecutionTime = 125.72 s  ClockTime = 126 s

Time = 1983

smoothSolver:  Solving for Ux, Initial residual = 0.0189113, Final residual = 8.4567e-06, No Iterations 2
smoothSolver:  Solving for Uy, Initial residual = 0.0178318, Final residual = 1.26018e-05, No Iterations 2
smoothSolver:  Solving for Uz, Initial residual = 0.0136033, Final residual = 6.26627e-06, No Iterations 2
GAMG:  Solving for p, Initial residual = 0.0202123, Final residual = 0.00146285, No Iterations 1
GAMG:  Solving for p, Initial residual = 0.00742095, Final residual = 0.000632121, No Iterations 1
GAMG:  Solving for p, Initial residual = 0.00355114, Final residual = 0.000181521, No Iterations 2
GAMG:  Solving for p, Initial residual = 0.00262691, Final residual = 0.000206902, No Iterations 1
GAMG:  Solving for p, Initial residual = 0.00152279, Final residual = 9.0709e-05, No Iterations 2
time step continuity errors : sum local = 6.67281e+06, global = 2.28718e+06, cumulative = 8.09489e+07
ExecutionTime = 125.78 s  ClockTime = 126 s

Time = 1984

smoothSolver:  Solving for Ux, Initial residual = 0.0189666, Final residual = 8.21992e-06, No Iterations 2
smoothSolver:  Solving for Uy, Initial residual = 0.0172901, Final residual = 1.20889e-05, No Iterations 2
smoothSolver:  Solving for Uz, Initial residual = 0.0136741, Final residual = 6.05124e-06, No Iterations 2
GAMG:  Solving for p, Initial residual = 0.0208358, Final residual = 0.001529, No Iterations 1
GAMG:  Solving for p, Initial residual = 0.00762467, Final residual = 0.000634306, No Iterations 1
GAMG:  Solving for p, Initial residual = 0.00364463, Final residual = 0.000360705, No Iterations 1
GAMG:  Solving for p, Initial residual = 0.00225215, Final residual = 0.000130666, No Iterations 2
GAMG:  Solving for p, Initial residual = 0.00187455, Final residual = 0.000150629, No Iterations 1
time step continuity errors : sum local = 1.07281e+07, global = 3.11543e+06, cumulative = 8.40643e+07
ExecutionTime = 125.85 s  ClockTime = 126 s

Time = 1985

smoothSolver:  Solving for Ux, Initial residual = 0.0180538, Final residual = 7.78082e-06, No Iterations 2
smoothSolver:  Solving for Uy, Initial residual = 0.0170359, Final residual = 1.25186e-05, No Iterations 2
smoothSolver:  Solving for Uz, Initial residual = 0.0136058, Final residual = 5.97217e-06, No Iterations 2
GAMG:  Solving for p, Initial residual = 0.0197158, Final residual = 0.00145466, No Iterations 1
GAMG:  Solving for p, Initial residual = 0.00750546, Final residual = 0.000632168, No Iterations 1
GAMG:  Solving for p, Initial residual = 0.00344683, Final residual = 0.000158497, No Iterations 2
GAMG:  Solving for p, Initial residual = 0.00243288, Final residual = 0.000192506, No Iterations 1
GAMG:  Solving for p, Initial residual = 0.00142129, Final residual = 7.14185e-05, No Iterations 2
time step continuity errors : sum local = 5.3998e+06, global = 2.04703e+06, cumulative = 8.61113e+07
ExecutionTime = 125.9 s  ClockTime = 126 s

Time = 1986

smoothSolver:  Solving for Ux, Initial residual = 0.0176376, Final residual = 8.03886e-06, No Iterations 2
smoothSolver:  Solving for Uy, Initial residual = 0.0167775, Final residual = 1.2595e-05, No Iterations 2
smoothSolver:  Solving for Uz, Initial residual = 0.0134351, Final residual = 6.08723e-06, No Iterations 2
GAMG:  Solving for p, Initial residual = 0.0197904, Final residual = 0.00149106, No Iterations 1
GAMG:  Solving for p, Initial residual = 0.00763935, Final residual = 0.000640356, No Iterations 1
GAMG:  Solving for p, Initial residual = 0.00353646, Final residual = 0.000154895, No Iterations 2
GAMG:  Solving for p, Initial residual = 0.0024098, Final residual = 0.000190923, No Iterations 1
GAMG:  Solving for p, Initial residual = 0.00141389, Final residual = 6.75835e-05, No Iterations 2
time step continuity errors : sum local = 4.99912e+06, global = 1.84425e+06, cumulative = 8.79556e+07
ExecutionTime = 125.96 s  ClockTime = 126 s

Time = 1987

smoothSolver:  Solving for Ux, Initial residual = 0.0171269, Final residual = 8.42373e-06, No Iterations 2
smoothSolver:  Solving for Uy, Initial residual = 0.016717, Final residual = 1.23289e-05, No Iterations 2
smoothSolver:  Solving for Uz, Initial residual = 0.0134534, Final residual = 6.15645e-06, No Iterations 2
GAMG:  Solving for p, Initial residual = 0.0196012, Final residual = 0.00143697, No Iterations 1
GAMG:  Solving for p, Initial residual = 0.00778846, Final residual = 0.000640371, No Iterations 1
GAMG:  Solving for p, Initial residual = 0.00355637, Final residual = 0.00035168, No Iterations 1
GAMG:  Solving for p, Initial residual = 0.00213155, Final residual = 0.00010751, No Iterations 2
GAMG:  Solving for p, Initial residual = 0.00162229, Final residual = 0.000132335, No Iterations 1
time step continuity errors : sum local = 1.00135e+07, global = 2.16101e+06, cumulative = 9.01166e+07
ExecutionTime = 126.02 s  ClockTime = 126 s

Time = 1988

smoothSolver:  Solving for Ux, Initial residual = 0.0166844, Final residual = 8.44862e-06, No Iterations 2
smoothSolver:  Solving for Uy, Initial residual = 0.0161558, Final residual = 1.13081e-05, No Iterations 2
smoothSolver:  Solving for Uz, Initial residual = 0.0133015, Final residual = 6.23516e-06, No Iterations 2
GAMG:  Solving for p, Initial residual = 0.0183194, Final residual = 0.00133951, No Iterations 1
GAMG:  Solving for p, Initial residual = 0.00717161, Final residual = 0.000582499, No Iterations 1
GAMG:  Solving for p, Initial residual = 0.00328378, Final residual = 0.00032078, No Iterations 1
GAMG:  Solving for p, Initial residual = 0.00197334, Final residual = 0.000100288, No Iterations 2
GAMG:  Solving for p, Initial residual = 0.0014932, Final residual = 0.000123203, No Iterations 1
time step continuity errors : sum local = 1.00837e+07, global = 2.16752e+06, cumulative = 9.22841e+07
ExecutionTime = 126.09 s  ClockTime = 126 s

Time = 1989

smoothSolver:  Solving for Ux, Initial residual = 0.0164088, Final residual = 8.33807e-06, No Iterations 2
smoothSolver:  Solving for Uy, Initial residual = 0.0157157, Final residual = 1.02428e-05, No Iterations 2
smoothSolver:  Solving for Uz, Initial residual = 0.0132111, Final residual = 6.03485e-06, No Iterations 2
GAMG:  Solving for p, Initial residual = 0.0179611, Final residual = 0.00132481, No Iterations 1
GAMG:  Solving for p, Initial residual = 0.00702672, Final residual = 0.000580259, No Iterations 1
GAMG:  Solving for p, Initial residual = 0.00323031, Final residual = 0.000306202, No Iterations 1
GAMG:  Solving for p, Initial residual = 0.00191146, Final residual = 9.87072e-05, No Iterations 2
GAMG:  Solving for p, Initial residual = 0.00145674, Final residual = 0.000118433, No Iterations 1
time step continuity errors : sum local = 1.01528e+07, global = 2.14056e+06, cumulative = 9.44247e+07
ExecutionTime = 126.15 s  ClockTime = 126 s

Time = 1990

smoothSolver:  Solving for Ux, Initial residual = 0.0163735, Final residual = 7.74999e-06, No Iterations 2
smoothSolver:  Solving for Uy, Initial residual = 0.0157674, Final residual = 1.01065e-05, No Iterations 2
smoothSolver:  Solving for Uz, Initial residual = 0.0133165, Final residual = 5.90065e-06, No Iterations 2
GAMG:  Solving for p, Initial residual = 0.0171279, Final residual = 0.00126112, No Iterations 1
GAMG:  Solving for p, Initial residual = 0.00641613, Final residual = 0.000539128, No Iterations 1
GAMG:  Solving for p, Initial residual = 0.00296204, Final residual = 0.000288267, No Iterations 1
GAMG:  Solving for p, Initial residual = 0.00171822, Final residual = 9.69972e-05, No Iterations 2
GAMG:  Solving for p, Initial residual = 0.0013496, Final residual = 0.000109848, No Iterations 1
time step continuity errors : sum local = 9.94507e+06, global = 2.29159e+06, cumulative = 9.67163e+07
ExecutionTime = 126.2 s  ClockTime = 126 s

Time = 1991

smoothSolver:  Solving for Ux, Initial residual = 0.0163954, Final residual = 8.03517e-06, No Iterations 2
smoothSolver:  Solving for Uy, Initial residual = 0.0156045, Final residual = 1.03639e-05, No Iterations 2
smoothSolver:  Solving for Uz, Initial residual = 0.0130705, Final residual = 5.74019e-06, No Iterations 2
GAMG:  Solving for p, Initial residual = 0.0159155, Final residual = 0.00113137, No Iterations 1
GAMG:  Solving for p, Initial residual = 0.00589881, Final residual = 0.000486191, No Iterations 1
GAMG:  Solving for p, Initial residual = 0.00270153, Final residual = 0.00025992, No Iterations 1
GAMG:  Solving for p, Initial residual = 0.00155209, Final residual = 9.14642e-05, No Iterations 2
GAMG:  Solving for p, Initial residual = 0.0012446, Final residual = 0.000101933, No Iterations 1
time step continuity errors : sum local = 1.0123e+07, global = 2.46461e+06, cumulative = 9.91809e+07
ExecutionTime = 126.27 s  ClockTime = 126 s

Time = 1992

smoothSolver:  Solving for Ux, Initial residual = 0.0163463, Final residual = 7.5439e-06, No Iterations 2
smoothSolver:  Solving for Uy, Initial residual = 0.016091, Final residual = 1.08854e-05, No Iterations 2
smoothSolver:  Solving for Uz, Initial residual = 0.0130882, Final residual = 5.67188e-06, No Iterations 2
GAMG:  Solving for p, Initial residual = 0.0145949, Final residual = 0.00105371, No Iterations 1
GAMG:  Solving for p, Initial residual = 0.00544534, Final residual = 0.000449183, No Iterations 1
GAMG:  Solving for p, Initial residual = 0.00253977, Final residual = 0.000243515, No Iterations 1
GAMG:  Solving for p, Initial residual = 0.0014677, Final residual = 9.35919e-05, No Iterations 2
GAMG:  Solving for p, Initial residual = 0.00121218, Final residual = 0.000100997, No Iterations 1
time step continuity errors : sum local = 1.09855e+07, global = 2.76943e+06, cumulative = 1.0195e+08
ExecutionTime = 126.32 s  ClockTime = 126 s

Time = 1993

smoothSolver:  Solving for Ux, Initial residual = 0.0162373, Final residual = 7.80219e-06, No Iterations 2
smoothSolver:  Solving for Uy, Initial residual = 0.0160706, Final residual = 1.02573e-05, No Iterations 2
smoothSolver:  Solving for Uz, Initial residual = 0.0129044, Final residual = 5.52229e-06, No Iterations 2
GAMG:  Solving for p, Initial residual = 0.0147095, Final residual = 0.00107105, No Iterations 1
GAMG:  Solving for p, Initial residual = 0.00552493, Final residual = 0.000463594, No Iterations 1
GAMG:  Solving for p, Initial residual = 0.0025544, Final residual = 0.000248689, No Iterations 1
GAMG:  Solving for p, Initial residual = 0.00148109, Final residual = 9.87786e-05, No Iterations 2
GAMG:  Solving for p, Initial residual = 0.00126453, Final residual = 0.000105757, No Iterations 1
time step continuity errors : sum local = 1.19097e+07, global = 3.0327e+06, cumulative = 1.04983e+08
ExecutionTime = 126.39 s  ClockTime = 126 s

Time = 1994

smoothSolver:  Solving for Ux, Initial residual = 0.0160021, Final residual = 7.37554e-06, No Iterations 2
smoothSolver:  Solving for Uy, Initial residual = 0.0153933, Final residual = 9.21964e-06, No Iterations 2
smoothSolver:  Solving for Uz, Initial residual = 0.0129474, Final residual = 5.33248e-06, No Iterations 2
GAMG:  Solving for p, Initial residual = 0.0144841, Final residual = 0.00110454, No Iterations 1
GAMG:  Solving for p, Initial residual = 0.00540066, Final residual = 0.000472428, No Iterations 1
GAMG:  Solving for p, Initial residual = 0.00255301, Final residual = 0.000253362, No Iterations 1
GAMG:  Solving for p, Initial residual = 0.00149361, Final residual = 0.00010633, No Iterations 2
GAMG:  Solving for p, Initial residual = 0.00131499, Final residual = 0.000108398, No Iterations 1
time step continuity errors : sum local = 1.26456e+07, global = 3.21102e+06, cumulative = 1.08194e+08
ExecutionTime = 126.45 s  ClockTime = 126 s

Time = 1995

smoothSolver:  Solving for Ux, Initial residual = 0.0159095, Final residual = 7.12154e-06, No Iterations 2
smoothSolver:  Solving for Uy, Initial residual = 0.01494, Final residual = 9.85114e-06, No Iterations 2
smoothSolver:  Solving for Uz, Initial residual = 0.0127988, Final residual = 5.26499e-06, No Iterations 2
GAMG:  Solving for p, Initial residual = 0.0143018, Final residual = 0.00111396, No Iterations 1
GAMG:  Solving for p, Initial residual = 0.00535156, Final residual = 0.00048024, No Iterations 1
GAMG:  Solving for p, Initial residual = 0.00251507, Final residual = 0.000134153, No Iterations 2
GAMG:  Solving for p, Initial residual = 0.00177374, Final residual = 0.000146071, No Iterations 1
GAMG:  Solving for p, Initial residual = 0.00101019, Final residual = 6.82571e-05, No Iterations 2
time step continuity errors : sum local = 8.3001e+06, global = 1.92975e+06, cumulative = 1.10124e+08
ExecutionTime = 126.51 s  ClockTime = 126 s

Time = 1996

smoothSolver:  Solving for Ux, Initial residual = 0.0156846, Final residual = 7.00172e-06, No Iterations 2
smoothSolver:  Solving for Uy, Initial residual = 0.0149535, Final residual = 9.54452e-06, No Iterations 2
smoothSolver:  Solving for Uz, Initial residual = 0.0128948, Final residual = 5.37113e-06, No Iterations 2
GAMG:  Solving for p, Initial residual = 0.014877, Final residual = 0.00118031, No Iterations 1
GAMG:  Solving for p, Initial residual = 0.00559463, Final residual = 0.00049263, No Iterations 1
GAMG:  Solving for p, Initial residual = 0.00261946, Final residual = 0.000138284, No Iterations 2
GAMG:  Solving for p, Initial residual = 0.00186046, Final residual = 0.000150874, No Iterations 1
GAMG:  Solving for p, Initial residual = 0.00105463, Final residual = 7.29938e-05, No Iterations 2
time step continuity errors : sum local = 8.69902e+06, global = 2.00086e+06, cumulative = 1.12125e+08
ExecutionTime = 126.57 s  ClockTime = 126 s

Time = 1997

smoothSolver:  Solving for Ux, Initial residual = 0.0155223, Final residual = 6.84967e-06, No Iterations 2
smoothSolver:  Solving for Uy, Initial residual = 0.0147471, Final residual = 9.678e-06, No Iterations 2
smoothSolver:  Solving for Uz, Initial residual = 0.0125877, Final residual = 5.24628e-06, No Iterations 2
GAMG:  Solving for p, Initial residual = 0.0156294, Final residual = 0.00125838, No Iterations 1
GAMG:  Solving for p, Initial residual = 0.00598893, Final residual = 0.000512986, No Iterations 1
GAMG:  Solving for p, Initial residual = 0.00281032, Final residual = 0.00027781, No Iterations 1
GAMG:  Solving for p, Initial residual = 0.00168973, Final residual = 0.000110911, No Iterations 2
GAMG:  Solving for p, Initial residual = 0.00144457, Final residual = 0.000114969, No Iterations 1
time step continuity errors : sum local = 1.33591e+07, global = 3.74791e+06, cumulative = 1.15873e+08
ExecutionTime = 126.63 s  ClockTime = 126 s

Time = 1998

smoothSolver:  Solving for Ux, Initial residual = 0.0153045, Final residual = 7.2526e-06, No Iterations 2
smoothSolver:  Solving for Uy, Initial residual = 0.0144468, Final residual = 9.13516e-06, No Iterations 2
smoothSolver:  Solving for Uz, Initial residual = 0.0125951, Final residual = 5.42448e-06, No Iterations 2
GAMG:  Solving for p, Initial residual = 0.0156482, Final residual = 0.00123479, No Iterations 1
GAMG:  Solving for p, Initial residual = 0.00600688, Final residual = 0.000489984, No Iterations 1
GAMG:  Solving for p, Initial residual = 0.00274519, Final residual = 0.000269235, No Iterations 1
GAMG:  Solving for p, Initial residual = 0.00168758, Final residual = 0.000102777, No Iterations 2
GAMG:  Solving for p, Initial residual = 0.00140172, Final residual = 0.000111636, No Iterations 1
time step continuity errors : sum local = 1.34223e+07, global = 3.90408e+06, cumulative = 1.19777e+08
ExecutionTime = 126.69 s  ClockTime = 126 s

Time = 1999

smoothSolver:  Solving for Ux, Initial residual = 0.0152092, Final residual = 7.39687e-06, No Iterations 2
smoothSolver:  Solving for Uy, Initial residual = 0.0141909, Final residual = 9.76285e-06, No Iterations 2
smoothSolver:  Solving for Uz, Initial residual = 0.0124163, Final residual = 5.58427e-06, No Iterations 2
GAMG:  Solving for p, Initial residual = 0.0155092, Final residual = 0.00124416, No Iterations 1
GAMG:  Solving for p, Initial residual = 0.0061491, Final residual = 0.000495002, No Iterations 1
GAMG:  Solving for p, Initial residual = 0.00269195, Final residual = 0.000265935, No Iterations 1
GAMG:  Solving for p, Initial residual = 0.00168432, Final residual = 9.9787e-05, No Iterations 2
GAMG:  Solving for p, Initial residual = 0.00141068, Final residual = 0.000110064, No Iterations 1
time step continuity errors : sum local = 1.33161e+07, global = 3.96382e+06, cumulative = 1.2374e+08
ExecutionTime = 126.75 s  ClockTime = 127 s

Time = 2000

smoothSolver:  Solving for Ux, Initial residual = 0.0151094, Final residual = 7.84988e-06, No Iterations 2
smoothSolver:  Solving for Uy, Initial residual = 0.0147411, Final residual = 9.69879e-06, No Iterations 2
smoothSolver:  Solving for Uz, Initial residual = 0.0126195, Final residual = 5.87596e-06, No Iterations 2
GAMG:  Solving for p, Initial residual = 0.0156694, Final residual = 0.00121818, No Iterations 1
GAMG:  Solving for p, Initial residual = 0.00638799, Final residual = 0.00048745, No Iterations 1
GAMG:  Solving for p, Initial residual = 0.00272666, Final residual = 0.000267889, No Iterations 1
GAMG:  Solving for p, Initial residual = 0.00175222, Final residual = 0.000103326, No Iterations 2
GAMG:  Solving for p, Initial residual = 0.0014521, Final residual = 0.000114705, No Iterations 1
time step continuity errors : sum local = 1.39997e+07, global = 4.3428e+06, cumulative = 1.28083e+08
ExecutionTime = 126.92 s  ClockTime = 127 s

End

