/*---------------------------------------------------------------------------*\
| =========                 |                                                 |
| \\      /  F ield         | OpenFOAM: The Open Source CFD Toolbox           |
|  \\    /   O peration     | Version:  2412                                  |
|   \\  /    A nd           | Website:  www.openfoam.com                      |
|    \\/     M anipulation  |                                                 |
\*---------------------------------------------------------------------------*/
Build  : _f00230df-20250528 OPENFOAM=2412 patch=250528 version=2412
Arch   : "LSB;label=32;scalar=64"
Exec   : simpleFoam -case cases/fan_0
Date   : Dec 05 2025
Time   : 01:07:30
Host   : LAPTOP-GNN8LC85
PID    : 5841
I/O    : uncollated
Case   : /mnt/c/Users/Ibrahim/Desktop/Godela-AI/my_Godela_repo/ibrahim_folder/cases/fan_0
nProcs : 1
trapFpe: Floating point exception trapping enabled (FOAM_SIGFPE).
fileModificationChecking : Monitoring run-time modified files using timeStampMaster (fileModificationSkew 5, maxFileModificationPolls 20)
allowSystemOperations : Allowing user-supplied system call operations

// * * * * * * * * * * * * * * * * * * * * * * * * * * * * * * * * * * * * * //
Create time

Create mesh for time = 0


SIMPLE: convergence criteria
    field U	 tolerance 1e-05
    field p	 tolerance 0.0001
    field k	 tolerance 1e-05
    field omega	 tolerance 1e-05

Reading field p

Reading field U

Reading/calculating face flux field phi

Selecting incompressible transport model Newtonian
Selecting turbulence model type RAS
Selecting RAS turbulence model kOmegaSST
Selecting patchDistMethod meshWave
RAS
{
    RASModel        kOmegaSST;
    turbulence      on;
    printCoeffs     on;
    alphaK1         0.85;
    alphaK2         1;
    alphaOmega1     0.5;
    alphaOmega2     0.856;
    gamma1          0.555556;
    gamma2          0.44;
    beta1           0.075;
    beta2           0.0828;
    betaStar        0.09;
    a1              0.31;
    b1              1;
    c1              10;
    F3              false;
    decayControl    false;
    kInf            0;
    omegaInf        0;
}

No MRF models present

No finite volume options present

Starting time loop

Time = 1

smoothSolver:  Solving for Ux, Initial residual = 0.246874, Final residual = 0.006902, No Iterations 2
smoothSolver:  Solving for Uy, Initial residual = 0.2418, Final residual = 0.00692085, No Iterations 2
smoothSolver:  Solving for Uz, Initial residual = 0.206802, Final residual = 0.00471628, No Iterations 2
GAMG:  Solving for p, Initial residual = 1, Final residual = 0.00558186, No Iterations 4
GAMG:  Solving for p, Initial residual = 0.215539, Final residual = 0.00130436, No Iterations 3
GAMG:  Solving for p, Initial residual = 0.0671592, Final residual = 0.000498709, No Iterations 3
GAMG:  Solving for p, Initial residual = 0.0294625, Final residual = 0.000207873, No Iterations 3
GAMG:  Solving for p, Initial residual = 0.0141846, Final residual = 0.000110136, No Iterations 3
time step continuity errors : sum local = 0.0315262, global = -0.00344753, cumulative = -0.00344753
smoothSolver:  Solving for omega, Initial residual = 0.220331, Final residual = 0.0206, No Iterations 4
smoothSolver:  Solving for k, Initial residual = 1, Final residual = 0.0482469, No Iterations 8
ExecutionTime = 0.86 s  ClockTime = 1 s

Time = 2

smoothSolver:  Solving for Ux, Initial residual = 0.14548, Final residual = 0.00335299, No Iterations 2
smoothSolver:  Solving for Uy, Initial residual = 0.147619, Final residual = 0.00339524, No Iterations 2
smoothSolver:  Solving for Uz, Initial residual = 0.127619, Final residual = 0.00270081, No Iterations 2
GAMG:  Solving for p, Initial residual = 0.53378, Final residual = 0.00312988, No Iterations 4
GAMG:  Solving for p, Initial residual = 0.15752, Final residual = 0.000856371, No Iterations 3
GAMG:  Solving for p, Initial residual = 0.0479562, Final residual = 0.000366235, No Iterations 3
GAMG:  Solving for p, Initial residual = 0.0211158, Final residual = 0.000148975, No Iterations 3
GAMG:  Solving for p, Initial residual = 0.0103052, Final residual = 8.33843e-05, No Iterations 3
time step continuity errors : sum local = 0.0307199, global = -0.00484658, cumulative = -0.0082941
smoothSolver:  Solving for omega, Initial residual = 0.105283, Final residual = 0.00649386, No Iterations 6
smoothSolver:  Solving for k, Initial residual = 0.371814, Final residual = 0.0346051, No Iterations 6
ExecutionTime = 1.17 s  ClockTime = 2 s

Time = 3

smoothSolver:  Solving for Ux, Initial residual = 0.109615, Final residual = 0.00244646, No Iterations 2
smoothSolver:  Solving for Uy, Initial residual = 0.112235, Final residual = 0.00250173, No Iterations 2
smoothSolver:  Solving for Uz, Initial residual = 0.104844, Final residual = 0.00225836, No Iterations 2
GAMG:  Solving for p, Initial residual = 0.320421, Final residual = 0.00183437, No Iterations 4
GAMG:  Solving for p, Initial residual = 0.104676, Final residual = 0.000604852, No Iterations 3
GAMG:  Solving for p, Initial residual = 0.034619, Final residual = 0.000250993, No Iterations 3
GAMG:  Solving for p, Initial residual = 0.0158686, Final residual = 0.000113797, No Iterations 3
GAMG:  Solving for p, Initial residual = 0.00804996, Final residual = 6.17302e-05, No Iterations 3
time step continuity errors : sum local = 0.0215618, global = -0.00345195, cumulative = -0.0117461
smoothSolver:  Solving for omega, Initial residual = 0.0497073, Final residual = 0.00367618, No Iterations 4
smoothSolver:  Solving for k, Initial residual = 0.302478, Final residual = 0.021076, No Iterations 6
ExecutionTime = 1.39 s  ClockTime = 2 s

Time = 4

smoothSolver:  Solving for Ux, Initial residual = 0.0924205, Final residual = 0.00201706, No Iterations 2
smoothSolver:  Solving for Uy, Initial residual = 0.0953719, Final residual = 0.00207083, No Iterations 2
smoothSolver:  Solving for Uz, Initial residual = 0.0968227, Final residual = 0.00201012, No Iterations 2
GAMG:  Solving for p, Initial residual = 0.252855, Final residual = 0.00105229, No Iterations 4
GAMG:  Solving for p, Initial residual = 0.088939, Final residual = 0.000547028, No Iterations 3
GAMG:  Solving for p, Initial residual = 0.0309919, Final residual = 0.000213509, No Iterations 3
GAMG:  Solving for p, Initial residual = 0.0142994, Final residual = 0.00010755, No Iterations 3
GAMG:  Solving for p, Initial residual = 0.00744692, Final residual = 5.54712e-05, No Iterations 3
time step continuity errors : sum local = 0.0160412, global = 0.000670519, cumulative = -0.0110755
smoothSolver:  Solving for omega, Initial residual = 0.0266854, Final residual = 0.00154318, No Iterations 4
smoothSolver:  Solving for k, Initial residual = 0.203965, Final residual = 0.0102916, No Iterations 6
ExecutionTime = 1.59 s  ClockTime = 2 s

Time = 5

smoothSolver:  Solving for Ux, Initial residual = 0.0800166, Final residual = 0.0016661, No Iterations 2
smoothSolver:  Solving for Uy, Initial residual = 0.0825986, Final residual = 0.00176243, No Iterations 2
smoothSolver:  Solving for Uz, Initial residual = 0.0860737, Final residual = 0.00171596, No Iterations 2
GAMG:  Solving for p, Initial residual = 0.243071, Final residual = 0.00102263, No Iterations 4
GAMG:  Solving for p, Initial residual = 0.110936, Final residual = 0.00064732, No Iterations 3
GAMG:  Solving for p, Initial residual = 0.0380514, Final residual = 0.000270435, No Iterations 3
GAMG:  Solving for p, Initial residual = 0.0175106, Final residual = 0.000126341, No Iterations 3
GAMG:  Solving for p, Initial residual = 0.00890474, Final residual = 6.96288e-05, No Iterations 3
time step continuity errors : sum local = 0.0173708, global = 0.00280517, cumulative = -0.00827036
smoothSolver:  Solving for omega, Initial residual = 0.0183891, Final residual = 0.00133641, No Iterations 4
smoothSolver:  Solving for k, Initial residual = 0.150589, Final residual = 0.0134242, No Iterations 4
ExecutionTime = 1.8 s  ClockTime = 2 s

Time = 6

smoothSolver:  Solving for Ux, Initial residual = 0.0716159, Final residual = 0.00141193, No Iterations 2
smoothSolver:  Solving for Uy, Initial residual = 0.072985, Final residual = 0.00146877, No Iterations 2
smoothSolver:  Solving for Uz, Initial residual = 0.0738826, Final residual = 0.00144034, No Iterations 2
GAMG:  Solving for p, Initial residual = 0.250044, Final residual = 0.00114908, No Iterations 4
GAMG:  Solving for p, Initial residual = 0.112581, Final residual = 0.000633217, No Iterations 3
GAMG:  Solving for p, Initial residual = 0.0381874, Final residual = 0.00027804, No Iterations 3
GAMG:  Solving for p, Initial residual = 0.0177563, Final residual = 0.000126574, No Iterations 3
GAMG:  Solving for p, Initial residual = 0.00898245, Final residual = 7.15801e-05, No Iterations 3
time step continuity errors : sum local = 0.0178399, global = 0.00274192, cumulative = -0.00552845
smoothSolver:  Solving for omega, Initial residual = 0.0152327, Final residual = 0.00130959, No Iterations 4
smoothSolver:  Solving for k, Initial residual = 0.124547, Final residual = 0.00915255, No Iterations 4
ExecutionTime = 2.01 s  ClockTime = 2 s

Time = 7

smoothSolver:  Solving for Ux, Initial residual = 0.0659313, Final residual = 0.00124474, No Iterations 2
smoothSolver:  Solving for Uy, Initial residual = 0.0664294, Final residual = 0.00129757, No Iterations 2
smoothSolver:  Solving for Uz, Initial residual = 0.0635456, Final residual = 0.00119753, No Iterations 2
GAMG:  Solving for p, Initial residual = 0.257968, Final residual = 0.00247444, No Iterations 3
GAMG:  Solving for p, Initial residual = 0.102515, Final residual = 0.000602674, No Iterations 3
GAMG:  Solving for p, Initial residual = 0.0360629, Final residual = 0.00025259, No Iterations 3
GAMG:  Solving for p, Initial residual = 0.0169503, Final residual = 0.000123509, No Iterations 3
GAMG:  Solving for p, Initial residual = 0.00868454, Final residual = 6.81234e-05, No Iterations 3
time step continuity errors : sum local = 0.0158215, global = 0.00245147, cumulative = -0.00307698
smoothSolver:  Solving for omega, Initial residual = 0.0129101, Final residual = 0.00121224, No Iterations 4
smoothSolver:  Solving for k, Initial residual = 0.103705, Final residual = 0.0083267, No Iterations 4
bounding k, min: -1.45264e-06 max: 0.390494 average: 0.0130427
ExecutionTime = 2.22 s  ClockTime = 3 s

Time = 8

smoothSolver:  Solving for Ux, Initial residual = 0.0617881, Final residual = 0.00113375, No Iterations 2
smoothSolver:  Solving for Uy, Initial residual = 0.0620077, Final residual = 0.00116533, No Iterations 2
smoothSolver:  Solving for Uz, Initial residual = 0.0560748, Final residual = 0.0010105, No Iterations 2
GAMG:  Solving for p, Initial residual = 0.245891, Final residual = 0.00188993, No Iterations 3
GAMG:  Solving for p, Initial residual = 0.0879373, Final residual = 0.000469029, No Iterations 3
GAMG:  Solving for p, Initial residual = 0.0319542, Final residual = 0.000208087, No Iterations 3
GAMG:  Solving for p, Initial residual = 0.0151347, Final residual = 0.000103177, No Iterations 3
GAMG:  Solving for p, Initial residual = 0.00785642, Final residual = 5.86159e-05, No Iterations 3
time step continuity errors : sum local = 0.0120461, global = 0.00192656, cumulative = -0.00115042
smoothSolver:  Solving for omega, Initial residual = 0.0112086, Final residual = 0.000533169, No Iterations 6
smoothSolver:  Solving for k, Initial residual = 0.0991494, Final residual = 0.00917735, No Iterations 4
bounding k, min: -5.44536e-06 max: 0.361837 average: 0.0125503
ExecutionTime = 2.57 s  ClockTime = 3 s

Time = 9

smoothSolver:  Solving for Ux, Initial residual = 0.0578468, Final residual = 0.00104449, No Iterations 2
smoothSolver:  Solving for Uy, Initial residual = 0.0586605, Final residual = 0.00107399, No Iterations 2
smoothSolver:  Solving for Uz, Initial residual = 0.0506634, Final residual = 0.000893224, No Iterations 2
GAMG:  Solving for p, Initial residual = 0.236607, Final residual = 0.00166162, No Iterations 3
GAMG:  Solving for p, Initial residual = 0.0799349, Final residual = 0.000390211, No Iterations 3
GAMG:  Solving for p, Initial residual = 0.0274782, Final residual = 0.0001661, No Iterations 3
GAMG:  Solving for p, Initial residual = 0.0125409, Final residual = 7.49921e-05, No Iterations 3
GAMG:  Solving for p, Initial residual = 0.00637604, Final residual = 4.33952e-05, No Iterations 3
time step continuity errors : sum local = 0.00923659, global = -0.00154184, cumulative = -0.00269225
smoothSolver:  Solving for omega, Initial residual = 0.00966463, Final residual = 0.000965391, No Iterations 4
smoothSolver:  Solving for k, Initial residual = 0.0992892, Final residual = 0.00450311, No Iterations 6
bounding k, min: -2.75939e-05 max: 0.324109 average: 0.0117421
ExecutionTime = 2.91 s  ClockTime = 3 s

Time = 10

smoothSolver:  Solving for Ux, Initial residual = 0.0538526, Final residual = 0.000992652, No Iterations 2
smoothSolver:  Solving for Uy, Initial residual = 0.0552733, Final residual = 0.000993502, No Iterations 2
smoothSolver:  Solving for Uz, Initial residual = 0.0467296, Final residual = 0.000817293, No Iterations 2
GAMG:  Solving for p, Initial residual = 0.227161, Final residual = 0.00184893, No Iterations 3
GAMG:  Solving for p, Initial residual = 0.0742076, Final residual = 0.000394765, No Iterations 3
GAMG:  Solving for p, Initial residual = 0.0248108, Final residual = 0.000165429, No Iterations 3
GAMG:  Solving for p, Initial residual = 0.0112017, Final residual = 7.17158e-05, No Iterations 3
GAMG:  Solving for p, Initial residual = 0.0055837, Final residual = 4.11298e-05, No Iterations 3
time step continuity errors : sum local = 0.00936668, global = -0.00148828, cumulative = -0.00418053
smoothSolver:  Solving for omega, Initial residual = 0.00885313, Final residual = 0.000490553, No Iterations 6
smoothSolver:  Solving for k, Initial residual = 0.094365, Final residual = 0.00474268, No Iterations 6
bounding k, min: -2.69483e-05 max: 0.284795 average: 0.0109347
ExecutionTime = 3.17 s  ClockTime = 3 s

Time = 11

smoothSolver:  Solving for Ux, Initial residual = 0.0499226, Final residual = 0.000918957, No Iterations 2
smoothSolver:  Solving for Uy, Initial residual = 0.0517765, Final residual = 0.000934209, No Iterations 2
smoothSolver:  Solving for Uz, Initial residual = 0.0434249, Final residual = 0.000772291, No Iterations 2
GAMG:  Solving for p, Initial residual = 0.205201, Final residual = 0.0016646, No Iterations 3
GAMG:  Solving for p, Initial residual = 0.0669503, Final residual = 0.00037639, No Iterations 3
GAMG:  Solving for p, Initial residual = 0.0224853, Final residual = 0.000156758, No Iterations 3
GAMG:  Solving for p, Initial residual = 0.0101427, Final residual = 7.05568e-05, No Iterations 3
GAMG:  Solving for p, Initial residual = 0.00508625, Final residual = 4.02744e-05, No Iterations 3
time step continuity errors : sum local = 0.00936812, global = -0.00140832, cumulative = -0.00558885
smoothSolver:  Solving for omega, Initial residual = 0.00771072, Final residual = 0.000401446, No Iterations 6
smoothSolver:  Solving for k, Initial residual = 0.0905148, Final residual = 0.00456259, No Iterations 6
bounding k, min: -8.7089e-06 max: 0.184583 average: 0.0102562
ExecutionTime = 3.55 s  ClockTime = 4 s

Time = 12

smoothSolver:  Solving for Ux, Initial residual = 0.0463895, Final residual = 0.000852245, No Iterations 2
smoothSolver:  Solving for Uy, Initial residual = 0.0482185, Final residual = 0.000874812, No Iterations 2
smoothSolver:  Solving for Uz, Initial residual = 0.0407325, Final residual = 0.000721834, No Iterations 2
GAMG:  Solving for p, Initial residual = 0.183319, Final residual = 0.00126093, No Iterations 3
GAMG:  Solving for p, Initial residual = 0.0596972, Final residual = 0.00033271, No Iterations 3
GAMG:  Solving for p, Initial residual = 0.0202839, Final residual = 0.000133541, No Iterations 3
GAMG:  Solving for p, Initial residual = 0.00914219, Final residual = 6.34185e-05, No Iterations 3
GAMG:  Solving for p, Initial residual = 0.00462726, Final residual = 3.54211e-05, No Iterations 3
time step continuity errors : sum local = 0.0080466, global = -0.0012465, cumulative = -0.00683535
smoothSolver:  Solving for omega, Initial residual = 0.00700315, Final residual = 0.000356149, No Iterations 6
smoothSolver:  Solving for k, Initial residual = 0.0828106, Final residual = 0.00398847, No Iterations 6
bounding k, min: -8.56e-06 max: 0.116887 average: 0.00973438
ExecutionTime = 3.79 s  ClockTime = 4 s

Time = 13

smoothSolver:  Solving for Ux, Initial residual = 0.0433857, Final residual = 0.000783116, No Iterations 2
smoothSolver:  Solving for Uy, Initial residual = 0.0451306, Final residual = 0.000811618, No Iterations 2
smoothSolver:  Solving for Uz, Initial residual = 0.0380644, Final residual = 0.000667944, No Iterations 2
GAMG:  Solving for p, Initial residual = 0.167324, Final residual = 0.00105648, No Iterations 3
GAMG:  Solving for p, Initial residual = 0.0545221, Final residual = 0.00026229, No Iterations 3
GAMG:  Solving for p, Initial residual = 0.0188125, Final residual = 0.000110171, No Iterations 3
GAMG:  Solving for p, Initial residual = 0.00852869, Final residual = 5.54178e-05, No Iterations 3
GAMG:  Solving for p, Initial residual = 0.00432756, Final residual = 3.01149e-05, No Iterations 3
time step continuity errors : sum local = 0.00646868, global = -0.00115333, cumulative = -0.00798868
smoothSolver:  Solving for omega, Initial residual = 0.00634609, Final residual = 0.000627636, No Iterations 4
smoothSolver:  Solving for k, Initial residual = 0.072945, Final residual = 0.00348102, No Iterations 6
bounding k, min: -2.59468e-05 max: 0.0780945 average: 0.00935784
ExecutionTime = 4.02 s  ClockTime = 4 s

Time = 14

smoothSolver:  Solving for Ux, Initial residual = 0.0408668, Final residual = 0.000736726, No Iterations 2
smoothSolver:  Solving for Uy, Initial residual = 0.0423217, Final residual = 0.000755395, No Iterations 2
smoothSolver:  Solving for Uz, Initial residual = 0.0354996, Final residual = 0.000624754, No Iterations 2
GAMG:  Solving for p, Initial residual = 0.156717, Final residual = 0.0010312, No Iterations 3
GAMG:  Solving for p, Initial residual = 0.0517593, Final residual = 0.000241339, No Iterations 3
GAMG:  Solving for p, Initial residual = 0.0180691, Final residual = 0.000100471, No Iterations 3
GAMG:  Solving for p, Initial residual = 0.00823838, Final residual = 4.7192e-05, No Iterations 3
GAMG:  Solving for p, Initial residual = 0.00416366, Final residual = 2.61579e-05, No Iterations 3
time step continuity errors : sum local = 0.00527736, global = -0.000322641, cumulative = -0.00831132
smoothSolver:  Solving for omega, Initial residual = 0.00598619, Final residual = 0.000319236, No Iterations 6
smoothSolver:  Solving for k, Initial residual = 0.0638726, Final residual = 0.0033005, No Iterations 6
bounding k, min: -3.20357e-05 max: 0.0767735 average: 0.00909111
ExecutionTime = 4.26 s  ClockTime = 5 s

Time = 15

smoothSolver:  Solving for Ux, Initial residual = 0.0387773, Final residual = 0.0006802, No Iterations 2
smoothSolver:  Solving for Uy, Initial residual = 0.0400646, Final residual = 0.000711715, No Iterations 2
smoothSolver:  Solving for Uz, Initial residual = 0.033019, Final residual = 0.000570925, No Iterations 2
GAMG:  Solving for p, Initial residual = 0.14899, Final residual = 0.00103422, No Iterations 3
GAMG:  Solving for p, Initial residual = 0.0500225, Final residual = 0.000238737, No Iterations 3
GAMG:  Solving for p, Initial residual = 0.0176581, Final residual = 0.000101846, No Iterations 3
GAMG:  Solving for p, Initial residual = 0.00808327, Final residual = 4.60969e-05, No Iterations 3
GAMG:  Solving for p, Initial residual = 0.00405976, Final residual = 2.54408e-05, No Iterations 3
time step continuity errors : sum local = 0.00489976, global = 0.000621886, cumulative = -0.00768943
smoothSolver:  Solving for omega, Initial residual = 0.00545514, Final residual = 0.000517496, No Iterations 4
smoothSolver:  Solving for k, Initial residual = 0.0541543, Final residual = 0.00310592, No Iterations 6
bounding k, min: -4.28356e-05 max: 0.0924142 average: 0.0089051
ExecutionTime = 4.48 s  ClockTime = 5 s

Time = 16

smoothSolver:  Solving for Ux, Initial residual = 0.0370174, Final residual = 0.000637233, No Iterations 2
smoothSolver:  Solving for Uy, Initial residual = 0.0378945, Final residual = 0.000664388, No Iterations 2
smoothSolver:  Solving for Uz, Initial residual = 0.0305879, Final residual = 0.00052793, No Iterations 2
GAMG:  Solving for p, Initial residual = 0.144165, Final residual = 0.00099438, No Iterations 3
GAMG:  Solving for p, Initial residual = 0.0476343, Final residual = 0.00023284, No Iterations 3
GAMG:  Solving for p, Initial residual = 0.0169622, Final residual = 0.000101175, No Iterations 3
GAMG:  Solving for p, Initial residual = 0.00777662, Final residual = 4.5712e-05, No Iterations 3
GAMG:  Solving for p, Initial residual = 0.0039156, Final residual = 2.54257e-05, No Iterations 3
time step continuity errors : sum local = 0.00477656, global = 0.000761195, cumulative = -0.00692824
smoothSolver:  Solving for omega, Initial residual = 0.00518464, Final residual = 0.000516896, No Iterations 4
smoothSolver:  Solving for k, Initial residual = 0.0470876, Final residual = 0.00273752, No Iterations 6
bounding k, min: -6.48291e-06 max: 0.10209 average: 0.00877255
ExecutionTime = 4.71 s  ClockTime = 5 s

Time = 17

smoothSolver:  Solving for Ux, Initial residual = 0.0354636, Final residual = 0.00060673, No Iterations 2
smoothSolver:  Solving for Uy, Initial residual = 0.036109, Final residual = 0.000625555, No Iterations 2
smoothSolver:  Solving for Uz, Initial residual = 0.028673, Final residual = 0.000494504, No Iterations 2
GAMG:  Solving for p, Initial residual = 0.138448, Final residual = 0.000884722, No Iterations 3
GAMG:  Solving for p, Initial residual = 0.0442023, Final residual = 0.000211148, No Iterations 3
GAMG:  Solving for p, Initial residual = 0.015655, Final residual = 9.22527e-05, No Iterations 3
GAMG:  Solving for p, Initial residual = 0.00715836, Final residual = 4.22712e-05, No Iterations 3
GAMG:  Solving for p, Initial residual = 0.00359726, Final residual = 2.37697e-05, No Iterations 3
time step continuity errors : sum local = 0.00443909, global = 0.000717313, cumulative = -0.00621093
smoothSolver:  Solving for omega, Initial residual = 0.00481682, Final residual = 0.000459114, No Iterations 4
smoothSolver:  Solving for k, Initial residual = 0.0412501, Final residual = 0.00234574, No Iterations 6
bounding k, min: -4.91356e-05 max: 0.116391 average: 0.0086789
ExecutionTime = 4.96 s  ClockTime = 5 s

Time = 18

smoothSolver:  Solving for Ux, Initial residual = 0.0336424, Final residual = 0.000572231, No Iterations 2
smoothSolver:  Solving for Uy, Initial residual = 0.0342178, Final residual = 0.000590917, No Iterations 2
smoothSolver:  Solving for Uz, Initial residual = 0.027, Final residual = 0.000457447, No Iterations 2
GAMG:  Solving for p, Initial residual = 0.133568, Final residual = 0.000770159, No Iterations 3
GAMG:  Solving for p, Initial residual = 0.0410261, Final residual = 0.000189048, No Iterations 3
GAMG:  Solving for p, Initial residual = 0.0141797, Final residual = 7.56464e-05, No Iterations 3
GAMG:  Solving for p, Initial residual = 0.00640197, Final residual = 3.52876e-05, No Iterations 3
GAMG:  Solving for p, Initial residual = 0.00320307, Final residual = 1.99943e-05, No Iterations 3
time step continuity errors : sum local = 0.00374015, global = 0.00046097, cumulative = -0.00574996
smoothSolver:  Solving for omega, Initial residual = 0.0044698, Final residual = 0.000408204, No Iterations 4
smoothSolver:  Solving for k, Initial residual = 0.0368079, Final residual = 0.00197887, No Iterations 6
bounding k, min: -6.69704e-06 max: 0.121631 average: 0.00862488
ExecutionTime = 5.21 s  ClockTime = 6 s

Time = 19

smoothSolver:  Solving for Ux, Initial residual = 0.0320553, Final residual = 0.000540725, No Iterations 2
smoothSolver:  Solving for Uy, Initial residual = 0.032383, Final residual = 0.000558824, No Iterations 2
smoothSolver:  Solving for Uz, Initial residual = 0.0256655, Final residual = 0.000426799, No Iterations 2
GAMG:  Solving for p, Initial residual = 0.127801, Final residual = 0.000686199, No Iterations 3
GAMG:  Solving for p, Initial residual = 0.0384683, Final residual = 0.000169242, No Iterations 3
GAMG:  Solving for p, Initial residual = 0.0130981, Final residual = 6.61001e-05, No Iterations 3
GAMG:  Solving for p, Initial residual = 0.00580592, Final residual = 3.16603e-05, No Iterations 3
GAMG:  Solving for p, Initial residual = 0.00289564, Final residual = 1.77314e-05, No Iterations 3
time step continuity errors : sum local = 0.00332591, global = -0.000406961, cumulative = -0.00615692
smoothSolver:  Solving for omega, Initial residual = 0.00418099, Final residual = 0.000370441, No Iterations 4
smoothSolver:  Solving for k, Initial residual = 0.0331373, Final residual = 0.00163401, No Iterations 6
bounding k, min: -3.67139e-05 max: 0.113077 average: 0.00859413
ExecutionTime = 5.43 s  ClockTime = 6 s

Time = 20

smoothSolver:  Solving for Ux, Initial residual = 0.0304783, Final residual = 0.000515235, No Iterations 2
smoothSolver:  Solving for Uy, Initial residual = 0.0305461, Final residual = 0.000526041, No Iterations 2
smoothSolver:  Solving for Uz, Initial residual = 0.0244453, Final residual = 0.00040241, No Iterations 2
GAMG:  Solving for p, Initial residual = 0.121149, Final residual = 0.00063063, No Iterations 3
GAMG:  Solving for p, Initial residual = 0.0361362, Final residual = 0.000160998, No Iterations 3
GAMG:  Solving for p, Initial residual = 0.0122458, Final residual = 5.9867e-05, No Iterations 3
GAMG:  Solving for p, Initial residual = 0.00538909, Final residual = 2.92442e-05, No Iterations 3
GAMG:  Solving for p, Initial residual = 0.00270171, Final residual = 1.65027e-05, No Iterations 3
time step continuity errors : sum local = 0.00309859, global = -0.000590833, cumulative = -0.00674775
smoothSolver:  Solving for omega, Initial residual = 0.00394303, Final residual = 0.000345657, No Iterations 4
smoothSolver:  Solving for k, Initial residual = 0.030472, Final residual = 0.0014392, No Iterations 6
bounding k, min: -3.65868e-05 max: 0.110809 average: 0.00857755
ExecutionTime = 5.68 s  ClockTime = 6 s

Time = 21

smoothSolver:  Solving for Ux, Initial residual = 0.0292005, Final residual = 0.00049443, No Iterations 2
smoothSolver:  Solving for Uy, Initial residual = 0.0289604, Final residual = 0.000497656, No Iterations 2
smoothSolver:  Solving for Uz, Initial residual = 0.0234296, Final residual = 0.000383067, No Iterations 2
GAMG:  Solving for p, Initial residual = 0.114504, Final residual = 0.000604177, No Iterations 3
GAMG:  Solving for p, Initial residual = 0.0340856, Final residual = 0.000149341, No Iterations 3
GAMG:  Solving for p, Initial residual = 0.0115865, Final residual = 5.70839e-05, No Iterations 3
GAMG:  Solving for p, Initial residual = 0.00510563, Final residual = 2.75767e-05, No Iterations 3
GAMG:  Solving for p, Initial residual = 0.0025639, Final residual = 1.57736e-05, No Iterations 3
time step continuity errors : sum local = 0.002949, global = -0.000495424, cumulative = -0.00724317
smoothSolver:  Solving for omega, Initial residual = 0.0037629, Final residual = 0.000323108, No Iterations 4
smoothSolver:  Solving for k, Initial residual = 0.028441, Final residual = 0.00281299, No Iterations 4
bounding k, min: -1.45815e-05 max: 0.11639 average: 0.00858167
ExecutionTime = 5.91 s  ClockTime = 6 s

Time = 22

smoothSolver:  Solving for Ux, Initial residual = 0.0278869, Final residual = 0.000478546, No Iterations 2
smoothSolver:  Solving for Uy, Initial residual = 0.027484, Final residual = 0.000476595, No Iterations 2
smoothSolver:  Solving for Uz, Initial residual = 0.0223668, Final residual = 0.000363042, No Iterations 2
GAMG:  Solving for p, Initial residual = 0.108617, Final residual = 0.000596158, No Iterations 3
GAMG:  Solving for p, Initial residual = 0.0322498, Final residual = 0.0001415, No Iterations 3
GAMG:  Solving for p, Initial residual = 0.0109782, Final residual = 5.33063e-05, No Iterations 3
GAMG:  Solving for p, Initial residual = 0.00483472, Final residual = 2.57413e-05, No Iterations 3
GAMG:  Solving for p, Initial residual = 0.00243636, Final residual = 1.47308e-05, No Iterations 3
time step continuity errors : sum local = 0.00272256, global = 9.23108e-05, cumulative = -0.00715086
smoothSolver:  Solving for omega, Initial residual = 0.00362973, Final residual = 0.000302752, No Iterations 4
smoothSolver:  Solving for k, Initial residual = 0.0280052, Final residual = 0.00131483, No Iterations 6
bounding k, min: -2.56816e-05 max: 0.133799 average: 0.00861301
ExecutionTime = 6.13 s  ClockTime = 8 s

Time = 23

smoothSolver:  Solving for Ux, Initial residual = 0.0268256, Final residual = 0.000461383, No Iterations 2
smoothSolver:  Solving for Uy, Initial residual = 0.026276, Final residual = 0.000451001, No Iterations 2
smoothSolver:  Solving for Uz, Initial residual = 0.0213299, Final residual = 0.000345708, No Iterations 2
GAMG:  Solving for p, Initial residual = 0.10382, Final residual = 0.000571427, No Iterations 3
GAMG:  Solving for p, Initial residual = 0.0309027, Final residual = 0.000131719, No Iterations 3
GAMG:  Solving for p, Initial residual = 0.0105462, Final residual = 4.85136e-05, No Iterations 3
GAMG:  Solving for p, Initial residual = 0.00465411, Final residual = 2.39932e-05, No Iterations 3
GAMG:  Solving for p, Initial residual = 0.00235002, Final residual = 1.37768e-05, No Iterations 3
time step continuity errors : sum local = 0.00250922, global = 0.000556038, cumulative = -0.00659482
smoothSolver:  Solving for omega, Initial residual = 0.00347723, Final residual = 0.000290993, No Iterations 4
smoothSolver:  Solving for k, Initial residual = 0.0269088, Final residual = 0.00125221, No Iterations 6
bounding k, min: -7.47484e-06 max: 0.177546 average: 0.00868499
ExecutionTime = 6.45 s  ClockTime = 8 s

Time = 24

smoothSolver:  Solving for Ux, Initial residual = 0.0258376, Final residual = 0.00045046, No Iterations 2
smoothSolver:  Solving for Uy, Initial residual = 0.0251068, Final residual = 0.000435808, No Iterations 2
smoothSolver:  Solving for Uz, Initial residual = 0.0202809, Final residual = 0.00032916, No Iterations 2
GAMG:  Solving for p, Initial residual = 0.0986954, Final residual = 0.000529506, No Iterations 3
GAMG:  Solving for p, Initial residual = 0.0293705, Final residual = 0.000124129, No Iterations 3
GAMG:  Solving for p, Initial residual = 0.0100899, Final residual = 5.01443e-05, No Iterations 3
GAMG:  Solving for p, Initial residual = 0.00446109, Final residual = 2.43239e-05, No Iterations 3
GAMG:  Solving for p, Initial residual = 0.00224014, Final residual = 1.35812e-05, No Iterations 3
time step continuity errors : sum local = 0.00244229, global = 0.000506719, cumulative = -0.0060881
smoothSolver:  Solving for omega, Initial residual = 0.00333676, Final residual = 0.000278702, No Iterations 4
smoothSolver:  Solving for k, Initial residual = 0.0266168, Final residual = 0.00251489, No Iterations 4
bounding k, min: -2.00296e-05 max: 0.200113 average: 0.00874726
ExecutionTime = 6.67 s  ClockTime = 9 s

Time = 25

smoothSolver:  Solving for Ux, Initial residual = 0.0250881, Final residual = 0.000436884, No Iterations 2
smoothSolver:  Solving for Uy, Initial residual = 0.0240881, Final residual = 0.000424917, No Iterations 2
smoothSolver:  Solving for Uz, Initial residual = 0.019347, Final residual = 0.000312457, No Iterations 2
GAMG:  Solving for p, Initial residual = 0.0944586, Final residual = 0.000477853, No Iterations 3
GAMG:  Solving for p, Initial residual = 0.0280277, Final residual = 0.000114607, No Iterations 3
GAMG:  Solving for p, Initial residual = 0.00955941, Final residual = 4.76207e-05, No Iterations 3
GAMG:  Solving for p, Initial residual = 0.00422641, Final residual = 2.36059e-05, No Iterations 3
GAMG:  Solving for p, Initial residual = 0.00211614, Final residual = 1.29877e-05, No Iterations 3
time step continuity errors : sum local = 0.00232273, global = 0.000487233, cumulative = -0.00560087
smoothSolver:  Solving for omega, Initial residual = 0.00321224, Final residual = 0.000264398, No Iterations 4
smoothSolver:  Solving for k, Initial residual = 0.0270466, Final residual = 0.00128188, No Iterations 6
ExecutionTime = 6.9 s  ClockTime = 9 s

Time = 26

smoothSolver:  Solving for Ux, Initial residual = 0.0243571, Final residual = 0.000423252, No Iterations 2
smoothSolver:  Solving for Uy, Initial residual = 0.0232083, Final residual = 0.00041093, No Iterations 2
smoothSolver:  Solving for Uz, Initial residual = 0.018477, Final residual = 0.000301307, No Iterations 2
GAMG:  Solving for p, Initial residual = 0.0903226, Final residual = 0.000433133, No Iterations 3
GAMG:  Solving for p, Initial residual = 0.0265807, Final residual = 0.000105551, No Iterations 3
GAMG:  Solving for p, Initial residual = 0.0090498, Final residual = 4.23426e-05, No Iterations 3
GAMG:  Solving for p, Initial residual = 0.00400918, Final residual = 2.24671e-05, No Iterations 3
GAMG:  Solving for p, Initial residual = 0.0020171, Final residual = 1.20428e-05, No Iterations 3
time step continuity errors : sum local = 0.00214574, global = 0.000458977, cumulative = -0.0051419
smoothSolver:  Solving for omega, Initial residual = 0.00317653, Final residual = 0.000250741, No Iterations 4
smoothSolver:  Solving for k, Initial residual = 0.0263551, Final residual = 0.00225959, No Iterations 4
ExecutionTime = 7.14 s  ClockTime = 9 s

Time = 27

smoothSolver:  Solving for Ux, Initial residual = 0.0236486, Final residual = 0.000409082, No Iterations 2
smoothSolver:  Solving for Uy, Initial residual = 0.0223295, Final residual = 0.000395984, No Iterations 2
smoothSolver:  Solving for Uz, Initial residual = 0.0176598, Final residual = 0.000286031, No Iterations 2
GAMG:  Solving for p, Initial residual = 0.0864841, Final residual = 0.000409756, No Iterations 3
GAMG:  Solving for p, Initial residual = 0.025313, Final residual = 9.7615e-05, No Iterations 3
GAMG:  Solving for p, Initial residual = 0.0086361, Final residual = 3.79938e-05, No Iterations 3
GAMG:  Solving for p, Initial residual = 0.00384602, Final residual = 2.10619e-05, No Iterations 3
GAMG:  Solving for p, Initial residual = 0.00193688, Final residual = 1.14208e-05, No Iterations 3
time step continuity errors : sum local = 0.00202665, global = 0.000454022, cumulative = -0.00468787
smoothSolver:  Solving for omega, Initial residual = 0.00307137, Final residual = 0.000238845, No Iterations 4
smoothSolver:  Solving for k, Initial residual = 0.0262413, Final residual = 0.00229031, No Iterations 4
ExecutionTime = 7.6 s  ClockTime = 10 s

Time = 28

smoothSolver:  Solving for Ux, Initial residual = 0.0228713, Final residual = 0.000395684, No Iterations 2
smoothSolver:  Solving for Uy, Initial residual = 0.0214467, Final residual = 0.000380958, No Iterations 2
smoothSolver:  Solving for Uz, Initial residual = 0.0168349, Final residual = 0.000273486, No Iterations 2
GAMG:  Solving for p, Initial residual = 0.0830704, Final residual = 0.000398458, No Iterations 3
GAMG:  Solving for p, Initial residual = 0.0242994, Final residual = 9.74858e-05, No Iterations 3
GAMG:  Solving for p, Initial residual = 0.00833838, Final residual = 3.89532e-05, No Iterations 3
GAMG:  Solving for p, Initial residual = 0.00372998, Final residual = 2.07626e-05, No Iterations 3
GAMG:  Solving for p, Initial residual = 0.00187763, Final residual = 1.13042e-05, No Iterations 3
time step continuity errors : sum local = 0.00200223, global = 0.000416893, cumulative = -0.00427098
smoothSolver:  Solving for omega, Initial residual = 0.00299077, Final residual = 0.000225499, No Iterations 4
smoothSolver:  Solving for k, Initial residual = 0.025663, Final residual = 0.00229839, No Iterations 4
ExecutionTime = 7.88 s  ClockTime = 10 s

Time = 29

smoothSolver:  Solving for Ux, Initial residual = 0.0222839, Final residual = 0.000389775, No Iterations 2
smoothSolver:  Solving for Uy, Initial residual = 0.0206532, Final residual = 0.000367408, No Iterations 2
smoothSolver:  Solving for Uz, Initial residual = 0.0160639, Final residual = 0.000260732, No Iterations 2
GAMG:  Solving for p, Initial residual = 0.0800871, Final residual = 0.000380448, No Iterations 3
GAMG:  Solving for p, Initial residual = 0.0234142, Final residual = 9.24902e-05, No Iterations 3
GAMG:  Solving for p, Initial residual = 0.00802326, Final residual = 3.7387e-05, No Iterations 3
GAMG:  Solving for p, Initial residual = 0.00356607, Final residual = 2.00881e-05, No Iterations 3
GAMG:  Solving for p, Initial residual = 0.00179861, Final residual = 1.11018e-05, No Iterations 3
time step continuity errors : sum local = 0.00196324, global = 0.00041491, cumulative = -0.00385607
smoothSolver:  Solving for omega, Initial residual = 0.00291197, Final residual = 0.000215387, No Iterations 4
smoothSolver:  Solving for k, Initial residual = 0.0256609, Final residual = 0.00222457, No Iterations 4
bounding k, min: -0.000458749 max: 0.311829 average: 0.00906947
ExecutionTime = 8.14 s  ClockTime = 10 s

Time = 30

smoothSolver:  Solving for Ux, Initial residual = 0.0216732, Final residual = 0.000387037, No Iterations 2
smoothSolver:  Solving for Uy, Initial residual = 0.0199444, Final residual = 0.000357088, No Iterations 2
smoothSolver:  Solving for Uz, Initial residual = 0.015344, Final residual = 0.000249634, No Iterations 2
GAMG:  Solving for p, Initial residual = 0.0781675, Final residual = 0.000380129, No Iterations 3
GAMG:  Solving for p, Initial residual = 0.0228684, Final residual = 9.24627e-05, No Iterations 3
GAMG:  Solving for p, Initial residual = 0.00780902, Final residual = 3.69182e-05, No Iterations 3
GAMG:  Solving for p, Initial residual = 0.00345765, Final residual = 1.99771e-05, No Iterations 3
GAMG:  Solving for p, Initial residual = 0.00174375, Final residual = 1.09961e-05, No Iterations 3
time step continuity errors : sum local = 0.00193219, global = 0.000373087, cumulative = -0.00348298
smoothSolver:  Solving for omega, Initial residual = 0.00288117, Final residual = 0.000198189, No Iterations 4
smoothSolver:  Solving for k, Initial residual = 0.026057, Final residual = 0.00227032, No Iterations 4
ExecutionTime = 8.37 s  ClockTime = 10 s

Time = 31

smoothSolver:  Solving for Ux, Initial residual = 0.0210348, Final residual = 0.000373557, No Iterations 2
smoothSolver:  Solving for Uy, Initial residual = 0.0192347, Final residual = 0.000343488, No Iterations 2
smoothSolver:  Solving for Uz, Initial residual = 0.0146452, Final residual = 0.000237509, No Iterations 2
GAMG:  Solving for p, Initial residual = 0.0756427, Final residual = 0.000365921, No Iterations 3
GAMG:  Solving for p, Initial residual = 0.0221041, Final residual = 8.75906e-05, No Iterations 3
GAMG:  Solving for p, Initial residual = 0.00750671, Final residual = 3.61403e-05, No Iterations 3
GAMG:  Solving for p, Initial residual = 0.00331618, Final residual = 1.92157e-05, No Iterations 3
GAMG:  Solving for p, Initial residual = 0.00167567, Final residual = 1.0878e-05, No Iterations 3
time step continuity errors : sum local = 0.00190444, global = 0.000396215, cumulative = -0.00308677
smoothSolver:  Solving for omega, Initial residual = 0.00283064, Final residual = 0.000190424, No Iterations 4
smoothSolver:  Solving for k, Initial residual = 0.0257799, Final residual = 0.0022001, No Iterations 4
bounding k, min: -4.05286e-06 max: 0.368725 average: 0.00922081
ExecutionTime = 8.59 s  ClockTime = 11 s

Time = 32

smoothSolver:  Solving for Ux, Initial residual = 0.0203779, Final residual = 0.000358262, No Iterations 2
smoothSolver:  Solving for Uy, Initial residual = 0.0185174, Final residual = 0.000326007, No Iterations 2
smoothSolver:  Solving for Uz, Initial residual = 0.013947, Final residual = 0.000228778, No Iterations 2
GAMG:  Solving for p, Initial residual = 0.0737016, Final residual = 0.000347691, No Iterations 3
GAMG:  Solving for p, Initial residual = 0.0214266, Final residual = 8.83673e-05, No Iterations 3
GAMG:  Solving for p, Initial residual = 0.00722162, Final residual = 3.72146e-05, No Iterations 3
GAMG:  Solving for p, Initial residual = 0.00319386, Final residual = 1.9656e-05, No Iterations 3
GAMG:  Solving for p, Initial residual = 0.00161296, Final residual = 1.11411e-05, No Iterations 3
time step continuity errors : sum local = 0.00193385, global = 0.000482523, cumulative = -0.00260425
smoothSolver:  Solving for omega, Initial residual = 0.00270573, Final residual = 0.000170314, No Iterations 4
smoothSolver:  Solving for k, Initial residual = 0.0249271, Final residual = 0.00211868, No Iterations 4
ExecutionTime = 8.83 s  ClockTime = 11 s

Time = 33

smoothSolver:  Solving for Ux, Initial residual = 0.0198523, Final residual = 0.000344832, No Iterations 2
smoothSolver:  Solving for Uy, Initial residual = 0.0179102, Final residual = 0.000311899, No Iterations 2
smoothSolver:  Solving for Uz, Initial residual = 0.0133698, Final residual = 0.000217884, No Iterations 2
GAMG:  Solving for p, Initial residual = 0.0712185, Final residual = 0.000334267, No Iterations 3
GAMG:  Solving for p, Initial residual = 0.0206815, Final residual = 9.17451e-05, No Iterations 3
GAMG:  Solving for p, Initial residual = 0.0069321, Final residual = 3.8961e-05, No Iterations 3
GAMG:  Solving for p, Initial residual = 0.00307847, Final residual = 2.00395e-05, No Iterations 3
GAMG:  Solving for p, Initial residual = 0.00154639, Final residual = 1.11108e-05, No Iterations 3
time step continuity errors : sum local = 0.00191289, global = 0.000544556, cumulative = -0.00205969
smoothSolver:  Solving for omega, Initial residual = 0.00256297, Final residual = 0.000161133, No Iterations 4
smoothSolver:  Solving for k, Initial residual = 0.0239939, Final residual = 0.00194743, No Iterations 4
ExecutionTime = 9.06 s  ClockTime = 11 s

Time = 34

smoothSolver:  Solving for Ux, Initial residual = 0.0191423, Final residual = 0.000333681, No Iterations 2
smoothSolver:  Solving for Uy, Initial residual = 0.0172616, Final residual = 0.000300191, No Iterations 2
smoothSolver:  Solving for Uz, Initial residual = 0.0127341, Final residual = 0.000208625, No Iterations 2
GAMG:  Solving for p, Initial residual = 0.0689592, Final residual = 0.000322303, No Iterations 3
GAMG:  Solving for p, Initial residual = 0.0200476, Final residual = 9.48911e-05, No Iterations 3
GAMG:  Solving for p, Initial residual = 0.00669956, Final residual = 4.12598e-05, No Iterations 3
GAMG:  Solving for p, Initial residual = 0.00298248, Final residual = 2.09109e-05, No Iterations 3
GAMG:  Solving for p, Initial residual = 0.00149801, Final residual = 1.15863e-05, No Iterations 3
time step continuity errors : sum local = 0.00197602, global = 0.000573691, cumulative = -0.001486
smoothSolver:  Solving for omega, Initial residual = 0.00249828, Final residual = 0.000149592, No Iterations 4
smoothSolver:  Solving for k, Initial residual = 0.0235378, Final residual = 0.00190226, No Iterations 4
ExecutionTime = 9.5 s  ClockTime = 11 s

Time = 35

smoothSolver:  Solving for Ux, Initial residual = 0.018569, Final residual = 0.000315471, No Iterations 2
smoothSolver:  Solving for Uy, Initial residual = 0.016691, Final residual = 0.000284819, No Iterations 2
smoothSolver:  Solving for Uz, Initial residual = 0.0121616, Final residual = 0.000198376, No Iterations 2
GAMG:  Solving for p, Initial residual = 0.0670524, Final residual = 0.000305039, No Iterations 3
GAMG:  Solving for p, Initial residual = 0.0195176, Final residual = 8.7875e-05, No Iterations 3
GAMG:  Solving for p, Initial residual = 0.00649328, Final residual = 3.97331e-05, No Iterations 3
GAMG:  Solving for p, Initial residual = 0.0028866, Final residual = 1.97683e-05, No Iterations 3
GAMG:  Solving for p, Initial residual = 0.00144713, Final residual = 1.11412e-05, No Iterations 3
time step continuity errors : sum local = 0.00188835, global = 0.000431074, cumulative = -0.00105492
smoothSolver:  Solving for omega, Initial residual = 0.00246538, Final residual = 0.000138279, No Iterations 4
smoothSolver:  Solving for k, Initial residual = 0.023053, Final residual = 0.00198357, No Iterations 4
ExecutionTime = 9.77 s  ClockTime = 12 s

Time = 36

smoothSolver:  Solving for Ux, Initial residual = 0.0179675, Final residual = 0.000306919, No Iterations 2
smoothSolver:  Solving for Uy, Initial residual = 0.0161261, Final residual = 0.000276792, No Iterations 2
smoothSolver:  Solving for Uz, Initial residual = 0.0115999, Final residual = 0.000189151, No Iterations 2
GAMG:  Solving for p, Initial residual = 0.0645894, Final residual = 0.00031952, No Iterations 3
GAMG:  Solving for p, Initial residual = 0.0187119, Final residual = 9.36247e-05, No Iterations 3
GAMG:  Solving for p, Initial residual = 0.00622809, Final residual = 4.19448e-05, No Iterations 3
GAMG:  Solving for p, Initial residual = 0.00277743, Final residual = 2.08606e-05, No Iterations 3
GAMG:  Solving for p, Initial residual = 0.00141208, Final residual = 1.14016e-05, No Iterations 3
time step continuity errors : sum local = 0.00191986, global = 0.000607221, cumulative = -0.000447704
smoothSolver:  Solving for omega, Initial residual = 0.0024468, Final residual = 0.000127657, No Iterations 4
smoothSolver:  Solving for k, Initial residual = 0.0218673, Final residual = 0.00171935, No Iterations 4
bounding k, min: -6.86241e-08 max: 0.230617 average: 0.0095209
ExecutionTime = 10 s  ClockTime = 12 s

Time = 37

smoothSolver:  Solving for Ux, Initial residual = 0.0174829, Final residual = 0.000291525, No Iterations 2
smoothSolver:  Solving for Uy, Initial residual = 0.0156454, Final residual = 0.000266108, No Iterations 2
smoothSolver:  Solving for Uz, Initial residual = 0.0110417, Final residual = 0.000178778, No Iterations 2
GAMG:  Solving for p, Initial residual = 0.0624195, Final residual = 0.00031901, No Iterations 3
GAMG:  Solving for p, Initial residual = 0.0178644, Final residual = 8.40529e-05, No Iterations 3
GAMG:  Solving for p, Initial residual = 0.00594065, Final residual = 3.71965e-05, No Iterations 3
GAMG:  Solving for p, Initial residual = 0.00265679, Final residual = 1.8449e-05, No Iterations 3
GAMG:  Solving for p, Initial residual = 0.00134401, Final residual = 1.00044e-05, No Iterations 3
time step continuity errors : sum local = 0.00167622, global = 0.000481572, cumulative = 3.38679e-05
smoothSolver:  Solving for omega, Initial residual = 0.00224443, Final residual = 0.000119718, No Iterations 4
smoothSolver:  Solving for k, Initial residual = 0.021053, Final residual = 0.00153713, No Iterations 4
ExecutionTime = 10.24 s  ClockTime = 12 s

Time = 38

smoothSolver:  Solving for Ux, Initial residual = 0.0167828, Final residual = 0.000283792, No Iterations 2
smoothSolver:  Solving for Uy, Initial residual = 0.0150266, Final residual = 0.000255232, No Iterations 2
smoothSolver:  Solving for Uz, Initial residual = 0.0104792, Final residual = 0.000171023, No Iterations 2
GAMG:  Solving for p, Initial residual = 0.0604389, Final residual = 0.000296789, No Iterations 3
GAMG:  Solving for p, Initial residual = 0.0172309, Final residual = 7.67151e-05, No Iterations 3
GAMG:  Solving for p, Initial residual = 0.00567005, Final residual = 3.09186e-05, No Iterations 3
GAMG:  Solving for p, Initial residual = 0.002515, Final residual = 1.56373e-05, No Iterations 3
GAMG:  Solving for p, Initial residual = 0.0012597, Final residual = 8.36989e-06, No Iterations 3
time step continuity errors : sum local = 0.00139895, global = 0.000356428, cumulative = 0.000390296
smoothSolver:  Solving for omega, Initial residual = 0.00213082, Final residual = 0.000111363, No Iterations 4
smoothSolver:  Solving for k, Initial residual = 0.0201663, Final residual = 0.00133523, No Iterations 4
bounding k, min: -6.63594e-06 max: 0.203912 average: 0.0095564
ExecutionTime = 10.46 s  ClockTime = 12 s

Time = 39

smoothSolver:  Solving for Ux, Initial residual = 0.0163018, Final residual = 0.000276101, No Iterations 2
smoothSolver:  Solving for Uy, Initial residual = 0.0145244, Final residual = 0.000247074, No Iterations 2
smoothSolver:  Solving for Uz, Initial residual = 0.00998273, Final residual = 0.000161825, No Iterations 2
GAMG:  Solving for p, Initial residual = 0.0584747, Final residual = 0.000280967, No Iterations 3
GAMG:  Solving for p, Initial residual = 0.016684, Final residual = 7.13303e-05, No Iterations 3
GAMG:  Solving for p, Initial residual = 0.00547202, Final residual = 2.87742e-05, No Iterations 3
GAMG:  Solving for p, Initial residual = 0.00241436, Final residual = 1.44282e-05, No Iterations 3
GAMG:  Solving for p, Initial residual = 0.00119918, Final residual = 7.72804e-06, No Iterations 3
time step continuity errors : sum local = 0.00128566, global = 0.000329906, cumulative = 0.000720202
smoothSolver:  Solving for omega, Initial residual = 0.00209081, Final residual = 0.00010695, No Iterations 4
smoothSolver:  Solving for k, Initial residual = 0.0195707, Final residual = 0.0012131, No Iterations 4
ExecutionTime = 10.69 s  ClockTime = 13 s

Time = 40

smoothSolver:  Solving for Ux, Initial residual = 0.0156608, Final residual = 0.000267875, No Iterations 2
smoothSolver:  Solving for Uy, Initial residual = 0.013955, Final residual = 0.000237535, No Iterations 2
smoothSolver:  Solving for Uz, Initial residual = 0.00945228, Final residual = 0.000152747, No Iterations 2
GAMG:  Solving for p, Initial residual = 0.0565195, Final residual = 0.000269971, No Iterations 3
GAMG:  Solving for p, Initial residual = 0.0160638, Final residual = 6.51984e-05, No Iterations 3
GAMG:  Solving for p, Initial residual = 0.00529219, Final residual = 2.87343e-05, No Iterations 3
GAMG:  Solving for p, Initial residual = 0.00231934, Final residual = 1.35108e-05, No Iterations 3
GAMG:  Solving for p, Initial residual = 0.00115129, Final residual = 7.4721e-06, No Iterations 3
time step continuity errors : sum local = 0.00123797, global = 0.000305323, cumulative = 0.00102552
smoothSolver:  Solving for omega, Initial residual = 0.00200308, Final residual = 9.14685e-05, No Iterations 4
smoothSolver:  Solving for k, Initial residual = 0.0191843, Final residual = 0.00114732, No Iterations 4
ExecutionTime = 10.93 s  ClockTime = 13 s

Time = 41

smoothSolver:  Solving for Ux, Initial residual = 0.0151707, Final residual = 0.000260018, No Iterations 2
smoothSolver:  Solving for Uy, Initial residual = 0.0135001, Final residual = 0.000232856, No Iterations 2
smoothSolver:  Solving for Uz, Initial residual = 0.00899449, Final residual = 0.000144577, No Iterations 2
GAMG:  Solving for p, Initial residual = 0.0549072, Final residual = 0.000256303, No Iterations 3
GAMG:  Solving for p, Initial residual = 0.015571, Final residual = 6.41521e-05, No Iterations 3
GAMG:  Solving for p, Initial residual = 0.00512317, Final residual = 2.78674e-05, No Iterations 3
GAMG:  Solving for p, Initial residual = 0.00224108, Final residual = 1.30654e-05, No Iterations 3
GAMG:  Solving for p, Initial residual = 0.00110761, Final residual = 7.14939e-06, No Iterations 3
time step continuity errors : sum local = 0.00118019, global = 0.000269435, cumulative = 0.00129496
smoothSolver:  Solving for omega, Initial residual = 0.00198297, Final residual = 9.27121e-05, No Iterations 4
smoothSolver:  Solving for k, Initial residual = 0.0186907, Final residual = 0.0012165, No Iterations 4
ExecutionTime = 11.16 s  ClockTime = 13 s

Time = 42

smoothSolver:  Solving for Ux, Initial residual = 0.014558, Final residual = 0.000253745, No Iterations 2
smoothSolver:  Solving for Uy, Initial residual = 0.013016, Final residual = 0.000228656, No Iterations 2
smoothSolver:  Solving for Uz, Initial residual = 0.00856639, Final residual = 0.000138691, No Iterations 2
GAMG:  Solving for p, Initial residual = 0.0536081, Final residual = 0.000247924, No Iterations 3
GAMG:  Solving for p, Initial residual = 0.0151943, Final residual = 6.24827e-05, No Iterations 3
GAMG:  Solving for p, Initial residual = 0.00500557, Final residual = 2.71989e-05, No Iterations 3
GAMG:  Solving for p, Initial residual = 0.00217817, Final residual = 1.27091e-05, No Iterations 3
GAMG:  Solving for p, Initial residual = 0.00107387, Final residual = 6.94446e-06, No Iterations 3
time step continuity errors : sum local = 0.00114248, global = 0.000217677, cumulative = 0.00151264
smoothSolver:  Solving for omega, Initial residual = 0.00193417, Final residual = 9.01741e-05, No Iterations 4
smoothSolver:  Solving for k, Initial residual = 0.0186586, Final residual = 0.00136908, No Iterations 4
ExecutionTime = 11.38 s  ClockTime = 13 s

Time = 43

smoothSolver:  Solving for Ux, Initial residual = 0.0140439, Final residual = 0.000246521, No Iterations 2
smoothSolver:  Solving for Uy, Initial residual = 0.0125425, Final residual = 0.000219887, No Iterations 2
smoothSolver:  Solving for Uz, Initial residual = 0.00811463, Final residual = 0.000134065, No Iterations 2
GAMG:  Solving for p, Initial residual = 0.0522595, Final residual = 0.000240167, No Iterations 3
GAMG:  Solving for p, Initial residual = 0.0147882, Final residual = 6.22284e-05, No Iterations 3
GAMG:  Solving for p, Initial residual = 0.00490276, Final residual = 2.60732e-05, No Iterations 3
GAMG:  Solving for p, Initial residual = 0.00212585, Final residual = 1.23171e-05, No Iterations 3
GAMG:  Solving for p, Initial residual = 0.00105279, Final residual = 6.85097e-06, No Iterations 3
time step continuity errors : sum local = 0.00112234, global = 0.000225967, cumulative = 0.0017386
smoothSolver:  Solving for omega, Initial residual = 0.00190822, Final residual = 8.89225e-05, No Iterations 4
smoothSolver:  Solving for k, Initial residual = 0.0190778, Final residual = 0.00150565, No Iterations 4
ExecutionTime = 11.6 s  ClockTime = 13 s

Time = 44

smoothSolver:  Solving for Ux, Initial residual = 0.0133644, Final residual = 0.000236035, No Iterations 2
smoothSolver:  Solving for Uy, Initial residual = 0.0120772, Final residual = 0.000214645, No Iterations 2
smoothSolver:  Solving for Uz, Initial residual = 0.00768837, Final residual = 0.000127851, No Iterations 2
GAMG:  Solving for p, Initial residual = 0.0504692, Final residual = 0.000228136, No Iterations 3
GAMG:  Solving for p, Initial residual = 0.0143578, Final residual = 6.27118e-05, No Iterations 3
GAMG:  Solving for p, Initial residual = 0.00477, Final residual = 2.53081e-05, No Iterations 3
GAMG:  Solving for p, Initial residual = 0.00206838, Final residual = 1.27631e-05, No Iterations 3
GAMG:  Solving for p, Initial residual = 0.00102397, Final residual = 6.75301e-06, No Iterations 3
time step continuity errors : sum local = 0.00109869, global = 0.000271561, cumulative = 0.00201016
smoothSolver:  Solving for omega, Initial residual = 0.00187746, Final residual = 8.75753e-05, No Iterations 4
smoothSolver:  Solving for k, Initial residual = 0.0192239, Final residual = 0.00164953, No Iterations 4
ExecutionTime = 11.83 s  ClockTime = 14 s

Time = 45

smoothSolver:  Solving for Ux, Initial residual = 0.0129697, Final residual = 0.00022307, No Iterations 2
smoothSolver:  Solving for Uy, Initial residual = 0.011683, Final residual = 0.000203442, No Iterations 2
smoothSolver:  Solving for Uz, Initial residual = 0.00734627, Final residual = 0.000120103, No Iterations 2
GAMG:  Solving for p, Initial residual = 0.0485467, Final residual = 0.00022229, No Iterations 3
GAMG:  Solving for p, Initial residual = 0.0138557, Final residual = 6.21477e-05, No Iterations 3
GAMG:  Solving for p, Initial residual = 0.00461162, Final residual = 2.51474e-05, No Iterations 3
GAMG:  Solving for p, Initial residual = 0.00199512, Final residual = 1.29744e-05, No Iterations 3
GAMG:  Solving for p, Initial residual = 0.000995469, Final residual = 6.83298e-06, No Iterations 3
time step continuity errors : sum local = 0.00110336, global = 0.000341124, cumulative = 0.00235129
smoothSolver:  Solving for omega, Initial residual = 0.00180684, Final residual = 8.64964e-05, No Iterations 4
smoothSolver:  Solving for k, Initial residual = 0.019253, Final residual = 0.00184602, No Iterations 4
ExecutionTime = 12.06 s  ClockTime = 14 s

Time = 46

smoothSolver:  Solving for Ux, Initial residual = 0.0123502, Final residual = 0.000216091, No Iterations 2
smoothSolver:  Solving for Uy, Initial residual = 0.0111853, Final residual = 0.000194291, No Iterations 2
smoothSolver:  Solving for Uz, Initial residual = 0.00693719, Final residual = 0.000115864, No Iterations 2
GAMG:  Solving for p, Initial residual = 0.0468049, Final residual = 0.000225436, No Iterations 3
GAMG:  Solving for p, Initial residual = 0.0133117, Final residual = 6.23045e-05, No Iterations 3
GAMG:  Solving for p, Initial residual = 0.00444691, Final residual = 2.6156e-05, No Iterations 3
GAMG:  Solving for p, Initial residual = 0.0019471, Final residual = 1.32336e-05, No Iterations 3
GAMG:  Solving for p, Initial residual = 0.000975705, Final residual = 6.9895e-06, No Iterations 3
time step continuity errors : sum local = 0.00112135, global = 0.00037633, cumulative = 0.00272762
smoothSolver:  Solving for omega, Initial residual = 0.00171909, Final residual = 7.81904e-05, No Iterations 4
smoothSolver:  Solving for k, Initial residual = 0.01879, Final residual = 0.00185266, No Iterations 4
ExecutionTime = 12.59 s  ClockTime = 14 s

Time = 47

smoothSolver:  Solving for Ux, Initial residual = 0.011928, Final residual = 0.000206292, No Iterations 2
smoothSolver:  Solving for Uy, Initial residual = 0.0107812, Final residual = 0.000186991, No Iterations 2
smoothSolver:  Solving for Uz, Initial residual = 0.00659324, Final residual = 0.000109882, No Iterations 2
GAMG:  Solving for p, Initial residual = 0.0454759, Final residual = 0.000224122, No Iterations 3
GAMG:  Solving for p, Initial residual = 0.0127791, Final residual = 5.81448e-05, No Iterations 3
GAMG:  Solving for p, Initial residual = 0.0042698, Final residual = 2.52889e-05, No Iterations 3
GAMG:  Solving for p, Initial residual = 0.0018621, Final residual = 1.27005e-05, No Iterations 3
GAMG:  Solving for p, Initial residual = 0.000933669, Final residual = 6.75688e-06, No Iterations 3
time step continuity errors : sum local = 0.00107769, global = 0.000375194, cumulative = 0.00310281
smoothSolver:  Solving for omega, Initial residual = 0.00169467, Final residual = 7.03414e-05, No Iterations 4
smoothSolver:  Solving for k, Initial residual = 0.018185, Final residual = 0.00169096, No Iterations 4
ExecutionTime = 12.91 s  ClockTime = 15 s

Time = 48

smoothSolver:  Solving for Ux, Initial residual = 0.0113506, Final residual = 0.000195819, No Iterations 2
smoothSolver:  Solving for Uy, Initial residual = 0.0103429, Final residual = 0.000176779, No Iterations 2
smoothSolver:  Solving for Uz, Initial residual = 0.00624555, Final residual = 0.000104379, No Iterations 2
GAMG:  Solving for p, Initial residual = 0.043998, Final residual = 0.000223082, No Iterations 3
GAMG:  Solving for p, Initial residual = 0.0122781, Final residual = 5.61741e-05, No Iterations 3
GAMG:  Solving for p, Initial residual = 0.00404038, Final residual = 2.3285e-05, No Iterations 3
GAMG:  Solving for p, Initial residual = 0.00175535, Final residual = 1.16666e-05, No Iterations 3
GAMG:  Solving for p, Initial residual = 0.000874923, Final residual = 6.06713e-06, No Iterations 3
time step continuity errors : sum local = 0.000966197, global = 0.000310984, cumulative = 0.0034138
smoothSolver:  Solving for omega, Initial residual = 0.00162586, Final residual = 6.59636e-05, No Iterations 4
smoothSolver:  Solving for k, Initial residual = 0.0176394, Final residual = 0.00133194, No Iterations 4
ExecutionTime = 13.14 s  ClockTime = 15 s

Time = 49

smoothSolver:  Solving for Ux, Initial residual = 0.010965, Final residual = 0.000187849, No Iterations 2
smoothSolver:  Solving for Uy, Initial residual = 0.00994748, Final residual = 0.000168456, No Iterations 2
smoothSolver:  Solving for Uz, Initial residual = 0.00592623, Final residual = 9.87145e-05, No Iterations 2
GAMG:  Solving for p, Initial residual = 0.042621, Final residual = 0.0002095, No Iterations 3
GAMG:  Solving for p, Initial residual = 0.0118851, Final residual = 5.3944e-05, No Iterations 3
GAMG:  Solving for p, Initial residual = 0.00387334, Final residual = 2.09747e-05, No Iterations 3
GAMG:  Solving for p, Initial residual = 0.00167452, Final residual = 1.11505e-05, No Iterations 3
GAMG:  Solving for p, Initial residual = 0.000828229, Final residual = 5.47596e-06, No Iterations 3
time step continuity errors : sum local = 0.000873286, global = 0.000264972, cumulative = 0.00367877
smoothSolver:  Solving for omega, Initial residual = 0.00158863, Final residual = 6.49939e-05, No Iterations 4
smoothSolver:  Solving for k, Initial residual = 0.0166868, Final residual = 0.00113384, No Iterations 4
ExecutionTime = 13.36 s  ClockTime = 15 s

Time = 50

smoothSolver:  Solving for Ux, Initial residual = 0.0104364, Final residual = 0.000182449, No Iterations 2
smoothSolver:  Solving for Uy, Initial residual = 0.00954828, Final residual = 0.000165952, No Iterations 2
smoothSolver:  Solving for Uz, Initial residual = 0.00563228, Final residual = 9.59283e-05, No Iterations 2
GAMG:  Solving for p, Initial residual = 0.0410083, Final residual = 0.000198744, No Iterations 3
GAMG:  Solving for p, Initial residual = 0.0114346, Final residual = 5.57998e-05, No Iterations 3
GAMG:  Solving for p, Initial residual = 0.00373887, Final residual = 2.10758e-05, No Iterations 3
GAMG:  Solving for p, Initial residual = 0.00161658, Final residual = 1.12986e-05, No Iterations 3
GAMG:  Solving for p, Initial residual = 0.000799822, Final residual = 5.45035e-06, No Iterations 3
time step continuity errors : sum local = 0.000870209, global = 0.000245283, cumulative = 0.00392405
smoothSolver:  Solving for omega, Initial residual = 0.00156518, Final residual = 6.11248e-05, No Iterations 4
smoothSolver:  Solving for k, Initial residual = 0.0159435, Final residual = 0.00106797, No Iterations 4
ExecutionTime = 13.59 s  ClockTime = 15 s

Time = 51

smoothSolver:  Solving for Ux, Initial residual = 0.0101332, Final residual = 0.000172379, No Iterations 2
smoothSolver:  Solving for Uy, Initial residual = 0.0092076, Final residual = 0.000155284, No Iterations 2
smoothSolver:  Solving for Uz, Initial residual = 0.00538667, Final residual = 8.88322e-05, No Iterations 2
GAMG:  Solving for p, Initial residual = 0.0396819, Final residual = 0.000183536, No Iterations 3
GAMG:  Solving for p, Initial residual = 0.0110745, Final residual = 5.51056e-05, No Iterations 3
GAMG:  Solving for p, Initial residual = 0.0036562, Final residual = 2.09957e-05, No Iterations 3
GAMG:  Solving for p, Initial residual = 0.00158255, Final residual = 1.13328e-05, No Iterations 3
GAMG:  Solving for p, Initial residual = 0.000783925, Final residual = 5.6549e-06, No Iterations 3
time step continuity errors : sum local = 0.000901526, global = 0.000217254, cumulative = 0.00414131
smoothSolver:  Solving for omega, Initial residual = 0.00150648, Final residual = 6.26301e-05, No Iterations 4
smoothSolver:  Solving for k, Initial residual = 0.0151683, Final residual = 0.00107269, No Iterations 4
ExecutionTime = 13.81 s  ClockTime = 16 s

Time = 52

smoothSolver:  Solving for Ux, Initial residual = 0.00961462, Final residual = 0.00016834, No Iterations 2
smoothSolver:  Solving for Uy, Initial residual = 0.00877964, Final residual = 0.000150775, No Iterations 2
smoothSolver:  Solving for Uz, Initial residual = 0.00510506, Final residual = 8.60931e-05, No Iterations 2
GAMG:  Solving for p, Initial residual = 0.0383055, Final residual = 0.000177426, No Iterations 3
GAMG:  Solving for p, Initial residual = 0.010752, Final residual = 5.56419e-05, No Iterations 3
GAMG:  Solving for p, Initial residual = 0.00356881, Final residual = 2.14942e-05, No Iterations 3
GAMG:  Solving for p, Initial residual = 0.00155589, Final residual = 1.15057e-05, No Iterations 3
GAMG:  Solving for p, Initial residual = 0.000772468, Final residual = 5.83477e-06, No Iterations 3
time step continuity errors : sum local = 0.000929675, global = 0.000207333, cumulative = 0.00434864
smoothSolver:  Solving for omega, Initial residual = 0.00148715, Final residual = 5.75172e-05, No Iterations 4
smoothSolver:  Solving for k, Initial residual = 0.0150361, Final residual = 0.00107472, No Iterations 4
ExecutionTime = 14.02 s  ClockTime = 16 s

Time = 53

smoothSolver:  Solving for Ux, Initial residual = 0.00928761, Final residual = 0.000160103, No Iterations 2
smoothSolver:  Solving for Uy, Initial residual = 0.0084671, Final residual = 0.000146201, No Iterations 2
smoothSolver:  Solving for Uz, Initial residual = 0.0048729, Final residual = 8.17928e-05, No Iterations 2
GAMG:  Solving for p, Initial residual = 0.0368469, Final residual = 0.000172456, No Iterations 3
GAMG:  Solving for p, Initial residual = 0.0103642, Final residual = 5.21969e-05, No Iterations 3
GAMG:  Solving for p, Initial residual = 0.00343742, Final residual = 1.95371e-05, No Iterations 3
GAMG:  Solving for p, Initial residual = 0.00148754, Final residual = 1.03813e-05, No Iterations 3
GAMG:  Solving for p, Initial residual = 0.000736532, Final residual = 5.31683e-06, No Iterations 3
time step continuity errors : sum local = 0.000847269, global = 0.000175942, cumulative = 0.00452458
smoothSolver:  Solving for omega, Initial residual = 0.0014214, Final residual = 5.74743e-05, No Iterations 4
smoothSolver:  Solving for k, Initial residual = 0.0146853, Final residual = 0.00104727, No Iterations 4
ExecutionTime = 14.25 s  ClockTime = 16 s

Time = 54

smoothSolver:  Solving for Ux, Initial residual = 0.00882749, Final residual = 0.000153988, No Iterations 2
smoothSolver:  Solving for Uy, Initial residual = 0.00804677, Final residual = 0.00014005, No Iterations 2
smoothSolver:  Solving for Uz, Initial residual = 0.00463579, Final residual = 7.84162e-05, No Iterations 2
GAMG:  Solving for p, Initial residual = 0.0353728, Final residual = 0.000172082, No Iterations 3
GAMG:  Solving for p, Initial residual = 0.0100295, Final residual = 5.05988e-05, No Iterations 3
GAMG:  Solving for p, Initial residual = 0.00332679, Final residual = 1.91168e-05, No Iterations 3
GAMG:  Solving for p, Initial residual = 0.00144825, Final residual = 9.63599e-06, No Iterations 3
GAMG:  Solving for p, Initial residual = 0.000711766, Final residual = 5.02078e-06, No Iterations 3
time step continuity errors : sum local = 0.000799519, global = 0.000163808, cumulative = 0.00468839
smoothSolver:  Solving for omega, Initial residual = 0.00140442, Final residual = 5.27604e-05, No Iterations 4
smoothSolver:  Solving for k, Initial residual = 0.0146635, Final residual = 0.00101194, No Iterations 4
ExecutionTime = 14.5 s  ClockTime = 16 s

Time = 55

smoothSolver:  Solving for Ux, Initial residual = 0.00858164, Final residual = 0.00014643, No Iterations 2
smoothSolver:  Solving for Uy, Initial residual = 0.00776268, Final residual = 0.000132937, No Iterations 2
smoothSolver:  Solving for Uz, Initial residual = 0.00446437, Final residual = 7.44001e-05, No Iterations 2
GAMG:  Solving for p, Initial residual = 0.0340504, Final residual = 0.000167298, No Iterations 3
GAMG:  Solving for p, Initial residual = 0.00959951, Final residual = 4.48235e-05, No Iterations 3
GAMG:  Solving for p, Initial residual = 0.00317805, Final residual = 1.69212e-05, No Iterations 3
GAMG:  Solving for p, Initial residual = 0.00138388, Final residual = 8.64973e-06, No Iterations 3
GAMG:  Solving for p, Initial residual = 0.000676862, Final residual = 4.43709e-06, No Iterations 3
time step continuity errors : sum local = 0.000706663, global = 0.00010728, cumulative = 0.00479567
smoothSolver:  Solving for omega, Initial residual = 0.00135901, Final residual = 5.6075e-05, No Iterations 4
smoothSolver:  Solving for k, Initial residual = 0.014359, Final residual = 0.00103463, No Iterations 4
ExecutionTime = 14.73 s  ClockTime = 16 s

Time = 56

smoothSolver:  Solving for Ux, Initial residual = 0.00816194, Final residual = 0.000142688, No Iterations 2
smoothSolver:  Solving for Uy, Initial residual = 0.00743764, Final residual = 0.00013134, No Iterations 2
smoothSolver:  Solving for Uz, Initial residual = 0.00425525, Final residual = 7.279e-05, No Iterations 2
GAMG:  Solving for p, Initial residual = 0.0329861, Final residual = 0.000162405, No Iterations 3
GAMG:  Solving for p, Initial residual = 0.00935509, Final residual = 4.39852e-05, No Iterations 3
GAMG:  Solving for p, Initial residual = 0.00308946, Final residual = 1.64427e-05, No Iterations 3
GAMG:  Solving for p, Initial residual = 0.00134975, Final residual = 8.44843e-06, No Iterations 3
GAMG:  Solving for p, Initial residual = 0.000660349, Final residual = 4.26931e-06, No Iterations 3
time step continuity errors : sum local = 0.000681115, global = 6.80782e-05, cumulative = 0.00486375
smoothSolver:  Solving for omega, Initial residual = 0.00131987, Final residual = 5.2191e-05, No Iterations 4
smoothSolver:  Solving for k, Initial residual = 0.0135237, Final residual = 0.00104112, No Iterations 4
bounding k, min: -4.55358e-05 max: 0.491657 average: 0.0103805
ExecutionTime = 14.97 s  ClockTime = 17 s

Time = 57

smoothSolver:  Solving for Ux, Initial residual = 0.00792702, Final residual = 0.00013585, No Iterations 2
smoothSolver:  Solving for Uy, Initial residual = 0.00718894, Final residual = 0.000124704, No Iterations 2
smoothSolver:  Solving for Uz, Initial residual = 0.00407743, Final residual = 6.81836e-05, No Iterations 2
GAMG:  Solving for p, Initial residual = 0.0318506, Final residual = 0.000162199, No Iterations 3
GAMG:  Solving for p, Initial residual = 0.00907885, Final residual = 4.09826e-05, No Iterations 3
GAMG:  Solving for p, Initial residual = 0.00298048, Final residual = 1.62178e-05, No Iterations 3
GAMG:  Solving for p, Initial residual = 0.00130143, Final residual = 8.01794e-06, No Iterations 3
GAMG:  Solving for p, Initial residual = 0.000633514, Final residual = 4.11804e-06, No Iterations 3
time step continuity errors : sum local = 0.000657399, global = 4.48045e-07, cumulative = 0.0048642
smoothSolver:  Solving for omega, Initial residual = 0.00129308, Final residual = 5.59189e-05, No Iterations 4
smoothSolver:  Solving for k, Initial residual = 0.0133095, Final residual = 0.00111893, No Iterations 4
bounding k, min: -3.3401e-05 max: 0.477573 average: 0.0104321
ExecutionTime = 15.19 s  ClockTime = 17 s

Time = 58

smoothSolver:  Solving for Ux, Initial residual = 0.00748509, Final residual = 0.000132221, No Iterations 2
smoothSolver:  Solving for Uy, Initial residual = 0.00690089, Final residual = 0.000119919, No Iterations 2
smoothSolver:  Solving for Uz, Initial residual = 0.00388591, Final residual = 6.76087e-05, No Iterations 2
GAMG:  Solving for p, Initial residual = 0.0310278, Final residual = 0.000163337, No Iterations 3
GAMG:  Solving for p, Initial residual = 0.00891121, Final residual = 3.89267e-05, No Iterations 3
GAMG:  Solving for p, Initial residual = 0.00292184, Final residual = 1.59046e-05, No Iterations 3
GAMG:  Solving for p, Initial residual = 0.00125985, Final residual = 7.88008e-06, No Iterations 3
GAMG:  Solving for p, Initial residual = 0.000615871, Final residual = 4.11233e-06, No Iterations 3
time step continuity errors : sum local = 0.000657597, global = -2.98244e-05, cumulative = 0.00483437
smoothSolver:  Solving for omega, Initial residual = 0.00125222, Final residual = 5.06256e-05, No Iterations 4
smoothSolver:  Solving for k, Initial residual = 0.0131802, Final residual = 0.00107302, No Iterations 4
bounding k, min: -2.10078e-05 max: 0.43725 average: 0.0104812
ExecutionTime = 15.5 s  ClockTime = 17 s

Time = 59

smoothSolver:  Solving for Ux, Initial residual = 0.00738031, Final residual = 0.000125047, No Iterations 2
smoothSolver:  Solving for Uy, Initial residual = 0.00673819, Final residual = 0.000116246, No Iterations 2
smoothSolver:  Solving for Uz, Initial residual = 0.00376286, Final residual = 6.47724e-05, No Iterations 2
GAMG:  Solving for p, Initial residual = 0.0302165, Final residual = 0.000164006, No Iterations 3
GAMG:  Solving for p, Initial residual = 0.00870234, Final residual = 3.86224e-05, No Iterations 3
GAMG:  Solving for p, Initial residual = 0.00286603, Final residual = 1.58878e-05, No Iterations 3
GAMG:  Solving for p, Initial residual = 0.00123731, Final residual = 7.69989e-06, No Iterations 3
GAMG:  Solving for p, Initial residual = 0.000601575, Final residual = 4.05407e-06, No Iterations 3
time step continuity errors : sum local = 0.000646958, global = -6.58073e-05, cumulative = 0.00476856
smoothSolver:  Solving for omega, Initial residual = 0.00125099, Final residual = 5.49539e-05, No Iterations 4
smoothSolver:  Solving for k, Initial residual = 0.0132242, Final residual = 0.00114169, No Iterations 4
bounding k, min: -1.26063e-05 max: 0.397146 average: 0.0105337
ExecutionTime = 15.73 s  ClockTime = 17 s

Time = 60

smoothSolver:  Solving for Ux, Initial residual = 0.00705321, Final residual = 0.000123254, No Iterations 2
smoothSolver:  Solving for Uy, Initial residual = 0.00650309, Final residual = 0.00011445, No Iterations 2
smoothSolver:  Solving for Uz, Initial residual = 0.00361177, Final residual = 6.34971e-05, No Iterations 2
GAMG:  Solving for p, Initial residual = 0.029314, Final residual = 0.000153078, No Iterations 3
GAMG:  Solving for p, Initial residual = 0.00830528, Final residual = 3.65107e-05, No Iterations 3
GAMG:  Solving for p, Initial residual = 0.00274746, Final residual = 1.52173e-05, No Iterations 3
GAMG:  Solving for p, Initial residual = 0.00118808, Final residual = 7.33289e-06, No Iterations 3
GAMG:  Solving for p, Initial residual = 0.000578083, Final residual = 4.00393e-06, No Iterations 3
time step continuity errors : sum local = 0.000641101, global = -5.67877e-05, cumulative = 0.00471178
smoothSolver:  Solving for omega, Initial residual = 0.00124316, Final residual = 5.13281e-05, No Iterations 4
smoothSolver:  Solving for k, Initial residual = 0.0129413, Final residual = 0.00107564, No Iterations 4
bounding k, min: -6.64553e-06 max: 0.389515 average: 0.0105888
ExecutionTime = 15.95 s  ClockTime = 18 s

Time = 61

smoothSolver:  Solving for Ux, Initial residual = 0.00689775, Final residual = 0.000120192, No Iterations 2
smoothSolver:  Solving for Uy, Initial residual = 0.00633796, Final residual = 0.000110603, No Iterations 2
smoothSolver:  Solving for Uz, Initial residual = 0.00349813, Final residual = 6.14454e-05, No Iterations 2
GAMG:  Solving for p, Initial residual = 0.028229, Final residual = 0.000145839, No Iterations 3
GAMG:  Solving for p, Initial residual = 0.00800005, Final residual = 3.4783e-05, No Iterations 3
GAMG:  Solving for p, Initial residual = 0.0026761, Final residual = 1.49498e-05, No Iterations 3
GAMG:  Solving for p, Initial residual = 0.00115881, Final residual = 6.89378e-06, No Iterations 3
GAMG:  Solving for p, Initial residual = 0.000568644, Final residual = 3.96938e-06, No Iterations 3
time step continuity errors : sum local = 0.000636098, global = -6.43625e-05, cumulative = 0.00464741
smoothSolver:  Solving for omega, Initial residual = 0.00123629, Final residual = 5.66214e-05, No Iterations 4
smoothSolver:  Solving for k, Initial residual = 0.0129878, Final residual = 0.00109769, No Iterations 4
bounding k, min: -3.17464e-05 max: 0.396754 average: 0.0106434
ExecutionTime = 16.19 s  ClockTime = 18 s

Time = 62

smoothSolver:  Solving for Ux, Initial residual = 0.00660107, Final residual = 0.000118076, No Iterations 2
smoothSolver:  Solving for Uy, Initial residual = 0.00611269, Final residual = 0.000107565, No Iterations 2
smoothSolver:  Solving for Uz, Initial residual = 0.0033754, Final residual = 6.08846e-05, No Iterations 2
GAMG:  Solving for p, Initial residual = 0.0274463, Final residual = 0.000139082, No Iterations 3
GAMG:  Solving for p, Initial residual = 0.00774471, Final residual = 3.4304e-05, No Iterations 3
GAMG:  Solving for p, Initial residual = 0.00261225, Final residual = 1.48285e-05, No Iterations 3
GAMG:  Solving for p, Initial residual = 0.00113327, Final residual = 7.09384e-06, No Iterations 3
GAMG:  Solving for p, Initial residual = 0.000561997, Final residual = 4.14406e-06, No Iterations 3
time step continuity errors : sum local = 0.000665515, global = -6.08706e-05, cumulative = 0.00458654
smoothSolver:  Solving for omega, Initial residual = 0.00122597, Final residual = 5.29562e-05, No Iterations 4
smoothSolver:  Solving for k, Initial residual = 0.0129637, Final residual = 0.0010642, No Iterations 4
bounding k, min: -4.46349e-05 max: 0.412486 average: 0.0106976
ExecutionTime = 16.43 s  ClockTime = 18 s

Time = 63

smoothSolver:  Solving for Ux, Initial residual = 0.00650117, Final residual = 0.000111085, No Iterations 2
smoothSolver:  Solving for Uy, Initial residual = 0.00596288, Final residual = 0.00010379, No Iterations 2
smoothSolver:  Solving for Uz, Initial residual = 0.00330824, Final residual = 5.84964e-05, No Iterations 2
GAMG:  Solving for p, Initial residual = 0.026608, Final residual = 0.000131675, No Iterations 3
GAMG:  Solving for p, Initial residual = 0.00750102, Final residual = 3.12376e-05, No Iterations 3
GAMG:  Solving for p, Initial residual = 0.00254653, Final residual = 1.46198e-05, No Iterations 3
GAMG:  Solving for p, Initial residual = 0.001111, Final residual = 6.96363e-06, No Iterations 3
GAMG:  Solving for p, Initial residual = 0.000559706, Final residual = 4.1327e-06, No Iterations 3
time step continuity errors : sum local = 0.000663199, global = -7.70174e-05, cumulative = 0.00450953
smoothSolver:  Solving for omega, Initial residual = 0.00121453, Final residual = 6.38285e-05, No Iterations 4
smoothSolver:  Solving for k, Initial residual = 0.0128496, Final residual = 0.00115736, No Iterations 4
bounding k, min: -4.87333e-05 max: 0.416516 average: 0.0107559
ExecutionTime = 16.64 s  ClockTime = 18 s

Time = 64

smoothSolver:  Solving for Ux, Initial residual = 0.00623848, Final residual = 0.000109978, No Iterations 2
smoothSolver:  Solving for Uy, Initial residual = 0.00577206, Final residual = 0.000102364, No Iterations 2
smoothSolver:  Solving for Uz, Initial residual = 0.003205, Final residual = 5.78443e-05, No Iterations 2
GAMG:  Solving for p, Initial residual = 0.0258963, Final residual = 0.000133585, No Iterations 3
GAMG:  Solving for p, Initial residual = 0.00729593, Final residual = 3.2386e-05, No Iterations 3
GAMG:  Solving for p, Initial residual = 0.00245539, Final residual = 1.49659e-05, No Iterations 3
GAMG:  Solving for p, Initial residual = 0.00107545, Final residual = 7.39196e-06, No Iterations 3
GAMG:  Solving for p, Initial residual = 0.000547568, Final residual = 4.26686e-06, No Iterations 3
time step continuity errors : sum local = 0.000685273, global = -8.36832e-05, cumulative = 0.00442584
smoothSolver:  Solving for omega, Initial residual = 0.00123411, Final residual = 5.66709e-05, No Iterations 4
smoothSolver:  Solving for k, Initial residual = 0.0134144, Final residual = 0.00114762, No Iterations 4
bounding k, min: -5.58517e-05 max: 0.364376 average: 0.0108204
ExecutionTime = 16.87 s  ClockTime = 18 s

Time = 65

smoothSolver:  Solving for Ux, Initial residual = 0.00617424, Final residual = 0.000106664, No Iterations 2
smoothSolver:  Solving for Uy, Initial residual = 0.00568056, Final residual = 9.99409e-05, No Iterations 2
[...]
bounding k, min: -3.89402e-07 max: 0.597721 average: 0.0127297
ExecutionTime = 21.94 s  ClockTime = 23 s

Time = 85

smoothSolver:  Solving for Ux, Initial residual = 0.00586439, Final residual = 0.000101853, No Iterations 2
smoothSolver:  Solving for Uy, Initial residual = 0.00547662, Final residual = 0.000112128, No Iterations 2
smoothSolver:  Solving for Uz, Initial residual = 0.00310704, Final residual = 5.79119e-05, No Iterations 2
GAMG:  Solving for p, Initial residual = 0.023238, Final residual = 0.000200331, No Iterations 3
GAMG:  Solving for p, Initial residual = 0.00793554, Final residual = 6.51321e-05, No Iterations 3
GAMG:  Solving for p, Initial residual = 0.00313632, Final residual = 2.06922e-05, No Iterations 4
GAMG:  Solving for p, Initial residual = 0.00167293, Final residual = 1.08111e-05, No Iterations 4
GAMG:  Solving for p, Initial residual = 0.000976968, Final residual = 7.68631e-06, No Iterations 4
time step continuity errors : sum local = 0.00132382, global = -0.000289163, cumulative = -7.1785e-05
smoothSolver:  Solving for omega, Initial residual = 0.00166282, Final residual = 0.000154, No Iterations 6
smoothSolver:  Solving for k, Initial residual = 0.0282087, Final residual = 0.00171227, No Iterations 8
bounding k, min: -0.000399103 max: 0.72345 average: 0.0130216
ExecutionTime = 22.18 s  ClockTime = 23 s

Time = 86

smoothSolver:  Solving for Ux, Initial residual = 0.00585354, Final residual = 0.000104975, No Iterations 2
smoothSolver:  Solving for Uy, Initial residual = 0.00547547, Final residual = 0.000113864, No Iterations 2
smoothSolver:  Solving for Uz, Initial residual = 0.00309636, Final residual = 5.89282e-05, No Iterations 2
GAMG:  Solving for p, Initial residual = 0.0232127, Final residual = 0.000204903, No Iterations 3
GAMG:  Solving for p, Initial residual = 0.00773775, Final residual = 6.25538e-05, No Iterations 3
GAMG:  Solving for p, Initial residual = 0.00300056, Final residual = 1.97529e-05, No Iterations 4
GAMG:  Solving for p, Initial residual = 0.00155979, Final residual = 1.01353e-05, No Iterations 4
GAMG:  Solving for p, Initial residual = 0.000904301, Final residual = 7.06121e-06, No Iterations 4
time step continuity errors : sum local = 0.00121863, global = -0.000233475, cumulative = -0.000305261
smoothSolver:  Solving for omega, Initial residual = 0.00208971, Final residual = 7.92142e-05, No Iterations 8
smoothSolver:  Solving for k, Initial residual = 0.0502015, Final residual = 0.0040336, No Iterations 8
bounding k, min: -0.000402426 max: 1.9376 average: 0.0136206
ExecutionTime = 22.43 s  ClockTime = 24 s

Time = 87

smoothSolver:  Solving for Ux, Initial residual = 0.00608223, Final residual = 0.000105544, No Iterations 2
smoothSolver:  Solving for Uy, Initial residual = 0.00559661, Final residual = 0.000111986, No Iterations 2
smoothSolver:  Solving for Uz, Initial residual = 0.00312896, Final residual = 5.63004e-05, No Iterations 2
GAMG:  Solving for p, Initial residual = 0.0230651, Final residual = 0.000189059, No Iterations 3
GAMG:  Solving for p, Initial residual = 0.00759401, Final residual = 5.86422e-05, No Iterations 3
GAMG:  Solving for p, Initial residual = 0.00285461, Final residual = 1.69745e-05, No Iterations 4
GAMG:  Solving for p, Initial residual = 0.00147973, Final residual = 8.18555e-06, No Iterations 4
GAMG:  Solving for p, Initial residual = 0.000817708, Final residual = 5.40965e-06, No Iterations 4
time step continuity errors : sum local = 0.000933874, global = -0.000135602, cumulative = -0.000440863
smoothSolver:  Solving for omega, Initial residual = 0.00275124, Final residual = 0.000175853, No Iterations 8
smoothSolver:  Solving for k, Initial residual = 0.106084, Final residual = 0.0095517, No Iterations 8
bounding k, min: -0.000607517 max: 4.67375 average: 0.0148981
ExecutionTime = 22.7 s  ClockTime = 24 s

Time = 88

smoothSolver:  Solving for Ux, Initial residual = 0.00607443, Final residual = 0.00010579, No Iterations 2
smoothSolver:  Solving for Uy, Initial residual = 0.00561026, Final residual = 0.000107039, No Iterations 2
smoothSolver:  Solving for Uz, Initial residual = 0.00326415, Final residual = 5.78527e-05, No Iterations 2
GAMG:  Solving for p, Initial residual = 0.0230126, Final residual = 0.000186677, No Iterations 3
GAMG:  Solving for p, Initial residual = 0.00759027, Final residual = 5.95366e-05, No Iterations 3
GAMG:  Solving for p, Initial residual = 0.00301609, Final residual = 1.86843e-05, No Iterations 4
GAMG:  Solving for p, Initial residual = 0.00164673, Final residual = 1.58601e-05, No Iterations 3
GAMG:  Solving for p, Initial residual = 0.000941432, Final residual = 6.22136e-06, No Iterations 4
time step continuity errors : sum local = 0.00107511, global = -0.000143546, cumulative = -0.000584409
smoothSolver:  Solving for omega, Initial residual = 0.00368701, Final residual = 0.000192071, No Iterations 8
smoothSolver:  Solving for k, Initial residual = 0.109529, Final residual = 0.00339191, No Iterations 10
bounding k, min: -0.000693064 max: 5.48098 average: 0.0165736
ExecutionTime = 22.94 s  ClockTime = 24 s

Time = 89

smoothSolver:  Solving for Ux, Initial residual = 0.00629947, Final residual = 0.000107367, No Iterations 2
smoothSolver:  Solving for Uy, Initial residual = 0.00582183, Final residual = 0.000100901, No Iterations 2
smoothSolver:  Solving for Uz, Initial residual = 0.00339823, Final residual = 6.11363e-05, No Iterations 2
GAMG:  Solving for p, Initial residual = 0.0234184, Final residual = 0.000214986, No Iterations 3
GAMG:  Solving for p, Initial residual = 0.00790805, Final residual = 7.78903e-05, No Iterations 3
GAMG:  Solving for p, Initial residual = 0.00332579, Final residual = 2.28763e-05, No Iterations 4
GAMG:  Solving for p, Initial residual = 0.00191366, Final residual = 1.29499e-05, No Iterations 4
GAMG:  Solving for p, Initial residual = 0.0011943, Final residual = 8.39177e-06, No Iterations 4
time step continuity errors : sum local = 0.00145081, global = -0.000272292, cumulative = -0.000856702
smoothSolver:  Solving for omega, Initial residual = 0.00366238, Final residual = 0.000264138, No Iterations 4
smoothSolver:  Solving for k, Initial residual = 0.0841224, Final residual = 0.00323313, No Iterations 10
bounding k, min: -0.000708228 max: 5.42045 average: 0.0178635
ExecutionTime = 23.19 s  ClockTime = 24 s

Time = 90

smoothSolver:  Solving for Ux, Initial residual = 0.00635555, Final residual = 0.000112227, No Iterations 2
smoothSolver:  Solving for Uy, Initial residual = 0.00581596, Final residual = 0.000104128, No Iterations 2
smoothSolver:  Solving for Uz, Initial residual = 0.0034419, Final residual = 6.21586e-05, No Iterations 2
GAMG:  Solving for p, Initial residual = 0.0236487, Final residual = 0.00021254, No Iterations 3
GAMG:  Solving for p, Initial residual = 0.00800689, Final residual = 4.46251e-05, No Iterations 4
GAMG:  Solving for p, Initial residual = 0.00337028, Final residual = 2.30551e-05, No Iterations 4
GAMG:  Solving for p, Initial residual = 0.00189031, Final residual = 1.38e-05, No Iterations 4
GAMG:  Solving for p, Initial residual = 0.00119367, Final residual = 8.88393e-06, No Iterations 4
time step continuity errors : sum local = 0.00153914, global = -0.000440851, cumulative = -0.00129755
smoothSolver:  Solving for omega, Initial residual = 0.002945, Final residual = 0.000289923, No Iterations 4
smoothSolver:  Solving for k, Initial residual = 0.0745464, Final residual = 0.00616713, No Iterations 4
bounding k, min: -0.0008777 max: 5.07776 average: 0.018164
ExecutionTime = 23.44 s  ClockTime = 25 s

Time = 91

smoothSolver:  Solving for Ux, Initial residual = 0.00638583, Final residual = 0.000112031, No Iterations 2
smoothSolver:  Solving for Uy, Initial residual = 0.00578224, Final residual = 0.000105801, No Iterations 2
smoothSolver:  Solving for Uz, Initial residual = 0.00337326, Final residual = 5.99868e-05, No Iterations 2
GAMG:  Solving for p, Initial residual = 0.0232692, Final residual = 0.000198811, No Iterations 3
GAMG:  Solving for p, Initial residual = 0.00782678, Final residual = 4.37631e-05, No Iterations 4
GAMG:  Solving for p, Initial residual = 0.00320826, Final residual = 2.38342e-05, No Iterations 4
GAMG:  Solving for p, Initial residual = 0.00172086, Final residual = 1.31076e-05, No Iterations 4
GAMG:  Solving for p, Initial residual = 0.00105879, Final residual = 8.45566e-06, No Iterations 4
time step continuity errors : sum local = 0.00146971, global = -0.000536109, cumulative = -0.00183366
smoothSolver:  Solving for omega, Initial residual = 0.0022887, Final residual = 0.000176958, No Iterations 6
smoothSolver:  Solving for k, Initial residual = 0.061437, Final residual = 0.00486832, No Iterations 8
bounding k, min: -0.000797224 max: 4.22194 average: 0.0180428
ExecutionTime = 23.69 s  ClockTime = 25 s

Time = 92

smoothSolver:  Solving for Ux, Initial residual = 0.00620013, Final residual = 0.000112137, No Iterations 2
smoothSolver:  Solving for Uy, Initial residual = 0.00569032, Final residual = 0.000108732, No Iterations 2
smoothSolver:  Solving for Uz, Initial residual = 0.00325778, Final residual = 5.85708e-05, No Iterations 2
GAMG:  Solving for p, Initial residual = 0.0227894, Final residual = 0.000173944, No Iterations 3
GAMG:  Solving for p, Initial residual = 0.0074801, Final residual = 6.76717e-05, No Iterations 3
GAMG:  Solving for p, Initial residual = 0.00294042, Final residual = 2.30324e-05, No Iterations 4
GAMG:  Solving for p, Initial residual = 0.00157371, Final residual = 9.74283e-06, No Iterations 4
GAMG:  Solving for p, Initial residual = 0.000912734, Final residual = 6.49254e-06, No Iterations 4
time step continuity errors : sum local = 0.0011335, global = -0.000402093, cumulative = -0.00223575
smoothSolver:  Solving for omega, Initial residual = 0.0021725, Final residual = 0.000143563, No Iterations 4
smoothSolver:  Solving for k, Initial residual = 0.045875, Final residual = 0.00340979, No Iterations 8
bounding k, min: -0.000489606 max: 3.66356 average: 0.0177397
ExecutionTime = 23.93 s  ClockTime = 25 s

Time = 93

smoothSolver:  Solving for Ux, Initial residual = 0.00625828, Final residual = 0.000110803, No Iterations 2
smoothSolver:  Solving for Uy, Initial residual = 0.00570046, Final residual = 0.000106229, No Iterations 2
smoothSolver:  Solving for Uz, Initial residual = 0.00321455, Final residual = 5.77326e-05, No Iterations 2
GAMG:  Solving for p, Initial residual = 0.0222622, Final residual = 0.000158207, No Iterations 3
GAMG:  Solving for p, Initial residual = 0.00721266, Final residual = 5.89e-05, No Iterations 3
GAMG:  Solving for p, Initial residual = 0.00277168, Final residual = 1.61744e-05, No Iterations 4
GAMG:  Solving for p, Initial residual = 0.00145375, Final residual = 1.32448e-05, No Iterations 3
GAMG:  Solving for p, Initial residual = 0.000800385, Final residual = 5.06058e-06, No Iterations 4
time step continuity errors : sum local = 0.000886648, global = -0.000198551, cumulative = -0.00243431
smoothSolver:  Solving for omega, Initial residual = 0.00175984, Final residual = 0.000166283, No Iterations 4
smoothSolver:  Solving for k, Initial residual = 0.0356764, Final residual = 0.00240942, No Iterations 6
bounding k, min: -0.000283842 max: 3.39541 average: 0.017638
ExecutionTime = 24.24 s  ClockTime = 25 s

Time = 94

smoothSolver:  Solving for Ux, Initial residual = 0.00617997, Final residual = 0.000109928, No Iterations 2
smoothSolver:  Solving for Uy, Initial residual = 0.00564342, Final residual = 0.000104967, No Iterations 2
smoothSolver:  Solving for Uz, Initial residual = 0.00319655, Final residual = 5.79837e-05, No Iterations 2
GAMG:  Solving for p, Initial residual = 0.0218757, Final residual = 0.000140003, No Iterations 3
GAMG:  Solving for p, Initial residual = 0.00697617, Final residual = 5.24337e-05, No Iterations 3
GAMG:  Solving for p, Initial residual = 0.00263335, Final residual = 2.36564e-05, No Iterations 3
GAMG:  Solving for p, Initial residual = 0.00131598, Final residual = 1.29797e-05, No Iterations 3
GAMG:  Solving for p, Initial residual = 0.000745242, Final residual = 4.8904e-06, No Iterations 4
time step continuity errors : sum local = 0.000860567, global = -0.000166637, cumulative = -0.00260094
smoothSolver:  Solving for omega, Initial residual = 0.00192377, Final residual = 0.000147942, No Iterations 4
smoothSolver:  Solving for k, Initial residual = 0.0244104, Final residual = 0.00162955, No Iterations 6
bounding k, min: -9.13698e-05 max: 3.3263 average: 0.0176021
ExecutionTime = 24.48 s  ClockTime = 26 s

Time = 95

smoothSolver:  Solving for Ux, Initial residual = 0.00624575, Final residual = 0.000109591, No Iterations 2
smoothSolver:  Solving for Uy, Initial residual = 0.00564508, Final residual = 0.000102596, No Iterations 2
smoothSolver:  Solving for Uz, Initial residual = 0.00324914, Final residual = 5.73128e-05, No Iterations 2
GAMG:  Solving for p, Initial residual = 0.0218496, Final residual = 0.000142364, No Iterations 3
GAMG:  Solving for p, Initial residual = 0.00686135, Final residual = 4.78076e-05, No Iterations 3
GAMG:  Solving for p, Initial residual = 0.00256482, Final residual = 2.2199e-05, No Iterations 3
GAMG:  Solving for p, Initial residual = 0.00126655, Final residual = 1.25782e-05, No Iterations 3
GAMG:  Solving for p, Initial residual = 0.000707601, Final residual = 5.12892e-06, No Iterations 4
time step continuity errors : sum local = 0.000905949, global = -0.000233066, cumulative = -0.00283401
smoothSolver:  Solving for omega, Initial residual = 0.00171631, Final residual = 9.11487e-05, No Iterations 6
smoothSolver:  Solving for k, Initial residual = 0.027097, Final residual = 0.002302, No Iterations 8
ExecutionTime = 24.72 s  ClockTime = 26 s

Time = 96

smoothSolver:  Solving for Ux, Initial residual = 0.00614434, Final residual = 0.000110025, No Iterations 2
smoothSolver:  Solving for Uy, Initial residual = 0.00559913, Final residual = 0.000104354, No Iterations 2
smoothSolver:  Solving for Uz, Initial residual = 0.00324893, Final residual = 5.6619e-05, No Iterations 2
GAMG:  Solving for p, Initial residual = 0.021586, Final residual = 0.000141496, No Iterations 3
GAMG:  Solving for p, Initial residual = 0.00675193, Final residual = 4.56689e-05, No Iterations 3
GAMG:  Solving for p, Initial residual = 0.0025425, Final residual = 2.23605e-05, No Iterations 3
GAMG:  Solving for p, Initial residual = 0.00124065, Final residual = 1.23078e-05, No Iterations 3
GAMG:  Solving for p, Initial residual = 0.000693379, Final residual = 5.25381e-06, No Iterations 4
time step continuity errors : sum local = 0.000931614, global = -0.000279584, cumulative = -0.00311359
smoothSolver:  Solving for omega, Initial residual = 0.00203502, Final residual = 0.000121745, No Iterations 4
smoothSolver:  Solving for k, Initial residual = 0.0281763, Final residual = 0.00259871, No Iterations 6
bounding k, min: -4.50058e-05 max: 3.01777 average: 0.0173712
ExecutionTime = 24.95 s  ClockTime = 26 s

Time = 97

smoothSolver:  Solving for Ux, Initial residual = 0.00614899, Final residual = 0.000108205, No Iterations 2
smoothSolver:  Solving for Uy, Initial residual = 0.00562348, Final residual = 0.000101009, No Iterations 2
smoothSolver:  Solving for Uz, Initial residual = 0.0032616, Final residual = 5.62469e-05, No Iterations 2
GAMG:  Solving for p, Initial residual = 0.0213407, Final residual = 0.000145252, No Iterations 3
GAMG:  Solving for p, Initial residual = 0.00675054, Final residual = 4.60579e-05, No Iterations 3
GAMG:  Solving for p, Initial residual = 0.0025182, Final residual = 2.27263e-05, No Iterations 3
GAMG:  Solving for p, Initial residual = 0.00122008, Final residual = 1.21032e-05, No Iterations 3
GAMG:  Solving for p, Initial residual = 0.000676979, Final residual = 5.13777e-06, No Iterations 4
time step continuity errors : sum local = 0.000913875, global = -0.000300007, cumulative = -0.0034136
smoothSolver:  Solving for omega, Initial residual = 0.00179794, Final residual = 0.000165531, No Iterations 4
smoothSolver:  Solving for k, Initial residual = 0.0266086, Final residual = 0.00221243, No Iterations 6
ExecutionTime = 25.4 s  ClockTime = 26 s

Time = 98

smoothSolver:  Solving for Ux, Initial residual = 0.00602968, Final residual = 0.000106364, No Iterations 2
smoothSolver:  Solving for Uy, Initial residual = 0.00556522, Final residual = 0.000101194, No Iterations 2
smoothSolver:  Solving for Uz, Initial residual = 0.00325929, Final residual = 5.61981e-05, No Iterations 2
GAMG:  Solving for p, Initial residual = 0.0216399, Final residual = 0.000142383, No Iterations 3
GAMG:  Solving for p, Initial residual = 0.00674829, Final residual = 4.72367e-05, No Iterations 3
GAMG:  Solving for p, Initial residual = 0.0024984, Final residual = 2.15979e-05, No Iterations 3
GAMG:  Solving for p, Initial residual = 0.00117646, Final residual = 1.14346e-05, No Iterations 3
GAMG:  Solving for p, Initial residual = 0.000640626, Final residual = 4.52043e-06, No Iterations 4
time step continuity errors : sum local = 0.000807608, global = -0.000246977, cumulative = -0.00366058
smoothSolver:  Solving for omega, Initial residual = 0.00216699, Final residual = 0.000156095, No Iterations 4
smoothSolver:  Solving for k, Initial residual = 0.0244194, Final residual = 0.00139011, No Iterations 10
bounding k, min: -4.9957e-06 max: 3.0761 average: 0.0175559
ExecutionTime = 25.71 s  ClockTime = 27 s

Time = 99

smoothSolver:  Solving for Ux, Initial residual = 0.00610248, Final residual = 0.000106197, No Iterations 2
smoothSolver:  Solving for Uy, Initial residual = 0.00560041, Final residual = 0.000100923, No Iterations 2
smoothSolver:  Solving for Uz, Initial residual = 0.00327175, Final residual = 5.75448e-05, No Iterations 2
GAMG:  Solving for p, Initial residual = 0.0214282, Final residual = 0.000147167, No Iterations 3
GAMG:  Solving for p, Initial residual = 0.00672032, Final residual = 4.92354e-05, No Iterations 3
GAMG:  Solving for p, Initial residual = 0.00249704, Final residual = 2.10875e-05, No Iterations 3
GAMG:  Solving for p, Initial residual = 0.00116808, Final residual = 1.09439e-05, No Iterations 3
GAMG:  Solving for p, Initial residual = 0.000626776, Final residual = 3.96411e-06, No Iterations 4
time step continuity errors : sum local = 0.000709548, global = -0.000196861, cumulative = -0.00385744
smoothSolver:  Solving for omega, Initial residual = 0.00171235, Final residual = 0.000151219, No Iterations 4
smoothSolver:  Solving for k, Initial residual = 0.0293632, Final residual = 0.00159621, No Iterations 10
bounding k, min: -2.39405e-05 max: 2.8837 average: 0.0173572
ExecutionTime = 25.95 s  ClockTime = 27 s

Time = 100

smoothSolver:  Solving for Ux, Initial residual = 0.00596969, Final residual = 0.000105559, No Iterations 2
smoothSolver:  Solving for Uy, Initial residual = 0.00551706, Final residual = 0.000100542, No Iterations 2
smoothSolver:  Solving for Uz, Initial residual = 0.00321106, Final residual = 5.72922e-05, No Iterations 2
GAMG:  Solving for p, Initial residual = 0.0211136, Final residual = 0.000138323, No Iterations 3
GAMG:  Solving for p, Initial residual = 0.006558, Final residual = 4.67033e-05, No Iterations 3
GAMG:  Solving for p, Initial residual = 0.00241844, Final residual = 1.91062e-05, No Iterations 3
GAMG:  Solving for p, Initial residual = 0.00110965, Final residual = 9.68239e-06, No Iterations 3
GAMG:  Solving for p, Initial residual = 0.000580622, Final residual = 5.38086e-06, No Iterations 3
time step continuity errors : sum local = 0.000966394, global = -0.000305319, cumulative = -0.00416276
smoothSolver:  Solving for omega, Initial residual = 0.00191641, Final residual = 0.000160044, No Iterations 4
smoothSolver:  Solving for k, Initial residual = 0.0205155, Final residual = 0.00149791, No Iterations 8
ExecutionTime = 26.36 s  ClockTime = 27 s

End

