/*---------------------------------------------------------------------------*\
| =========                 |                                                 |
| \\      /  F ield         | OpenFOAM: The Open Source CFD Toolbox           |
|  \\    /   O peration     | Version:  2506                                  |
|   \\  /    A nd           | Website:  www.openfoam.com                      |
|    \\/     M anipulation  |                                                 |
\*---------------------------------------------------------------------------*/
Build  : _615aae61-20250627 OPENFOAM=2506 version=2506
Arch   : "LSB;label=32;scalar=64"
Exec   : simpleFoam -noFunctionObjects -case /home/ubuntu/fan_CFD_dataset/cases/fan_18
Date   : Nov 07 2025
Time   : 15:01:55
Host   : ip-172-31-37-87
PID    : 174881
I/O    : uncollated
Case   : /home/ubuntu/fan_CFD_dataset/cases/fan_18
nProcs : 1
trapFpe: Floating point exception trapping enabled (FOAM_SIGFPE).
fileModificationChecking : Monitoring run-time modified files using timeStampMaster (fileModificationSkew 5, maxFileModificationPolls 20)
allowSystemOperations : Allowing user-supplied system call operations

// * * * * * * * * * * * * * * * * * * * * * * * * * * * * * * * * * * * * * //
Create time

Create mesh for time = 0


SIMPLE: convergence criteria
    field U	 tolerance 1e-05
    field p	 tolerance 0.0001

Reading field p

Reading field U

Reading/calculating face flux field phi

Selecting incompressible transport model Newtonian
Selecting turbulence model type laminar
Selecting laminar stress model Stokes
No MRF models present

No finite volume options present

Starting time loop

Time = 1

smoothSolver:  Solving for Ux, Initial residual = 1, Final residual = 0.000298304, No Iterations 2
smoothSolver:  Solving for Uy, Initial residual = 1, Final residual = 0.000306273, No Iterations 2
smoothSolver:  Solving for Uz, Initial residual = 1, Final residual = 0.000511679, No Iterations 2
GAMG:  Solving for p, Initial residual = 1, Final residual = 0.0885139, No Iterations 3
GAMG:  Solving for p, Initial residual = 0.0996465, Final residual = 0.00653841, No Iterations 1
GAMG:  Solving for p, Initial residual = 0.0271114, Final residual = 0.00103422, No Iterations 2
GAMG:  Solving for p, Initial residual = 0.0171792, Final residual = 0.00121546, No Iterations 1
GAMG:  Solving for p, Initial residual = 0.00714615, Final residual = 0.000338888, No Iterations 2
time step continuity errors : sum local = 5.57306, global = -0.917639, cumulative = -0.917639
ExecutionTime = 0.23 s  ClockTime = 0 s

Time = 2

smoothSolver:  Solving for Ux, Initial residual = 0.0513314, Final residual = 2.14265e-05, No Iterations 2
smoothSolver:  Solving for Uy, Initial residual = 0.0471417, Final residual = 1.98866e-05, No Iterations 2
smoothSolver:  Solving for Uz, Initial residual = 0.166335, Final residual = 5.71206e-05, No Iterations 2
GAMG:  Solving for p, Initial residual = 0.326795, Final residual = 0.0146389, No Iterations 4
GAMG:  Solving for p, Initial residual = 0.0232524, Final residual = 0.00149097, No Iterations 1
GAMG:  Solving for p, Initial residual = 0.00785544, Final residual = 0.000721801, No Iterations 1
GAMG:  Solving for p, Initial residual = 0.00439304, Final residual = 0.000429032, No Iterations 1
GAMG:  Solving for p, Initial residual = 0.00286282, Final residual = 0.000285647, No Iterations 1
time step continuity errors : sum local = 17.7584, global = -3.84349, cumulative = -4.76113
ExecutionTime = 0.3 s  ClockTime = 0 s

Time = 3

smoothSolver:  Solving for Ux, Initial residual = 0.196885, Final residual = 9.29855e-05, No Iterations 2
smoothSolver:  Solving for Uy, Initial residual = 0.194263, Final residual = 9.09545e-05, No Iterations 2
smoothSolver:  Solving for Uz, Initial residual = 0.428809, Final residual = 0.000167614, No Iterations 2
GAMG:  Solving for p, Initial residual = 0.0364888, Final residual = 0.00208344, No Iterations 3
GAMG:  Solving for p, Initial residual = 0.0271519, Final residual = 0.00178007, No Iterations 1
GAMG:  Solving for p, Initial residual = 0.00862162, Final residual = 0.000846433, No Iterations 1
GAMG:  Solving for p, Initial residual = 0.00489404, Final residual = 0.000211837, No Iterations 2
GAMG:  Solving for p, Initial residual = 0.00381521, Final residual = 0.000278484, No Iterations 1
time step continuity errors : sum local = 7.73763, global = -2.15467, cumulative = -6.9158
ExecutionTime = 0.37 s  ClockTime = 0 s

Time = 4

smoothSolver:  Solving for Ux, Initial residual = 0.178232, Final residual = 7.95759e-05, No Iterations 2
smoothSolver:  Solving for Uy, Initial residual = 0.177129, Final residual = 7.78749e-05, No Iterations 2
smoothSolver:  Solving for Uz, Initial residual = 0.427195, Final residual = 0.000166458, No Iterations 2
GAMG:  Solving for p, Initial residual = 0.0165481, Final residual = 0.00143894, No Iterations 1
GAMG:  Solving for p, Initial residual = 0.00670805, Final residual = 0.000324345, No Iterations 2
GAMG:  Solving for p, Initial residual = 0.00550008, Final residual = 0.00036443, No Iterations 1
GAMG:  Solving for p, Initial residual = 0.00236963, Final residual = 0.000103997, No Iterations 2
GAMG:  Solving for p, Initial residual = 0.00208557, Final residual = 0.000145622, No Iterations 1
time step continuity errors : sum local = 2.78896, global = -0.624243, cumulative = -7.54004
ExecutionTime = 0.45 s  ClockTime = 0 s

Time = 5

smoothSolver:  Solving for Ux, Initial residual = 0.134157, Final residual = 5.78222e-05, No Iterations 2
smoothSolver:  Solving for Uy, Initial residual = 0.134046, Final residual = 5.70438e-05, No Iterations 2
smoothSolver:  Solving for Uz, Initial residual = 0.357128, Final residual = 0.000138366, No Iterations 2
GAMG:  Solving for p, Initial residual = 0.01731, Final residual = 0.00115041, No Iterations 2
GAMG:  Solving for p, Initial residual = 0.0435113, Final residual = 0.00273633, No Iterations 1
GAMG:  Solving for p, Initial residual = 0.0170839, Final residual = 0.000775933, No Iterations 2
GAMG:  Solving for p, Initial residual = 0.0235331, Final residual = 0.00154271, No Iterations 1
GAMG:  Solving for p, Initial residual = 0.0100971, Final residual = 0.000438848, No Iterations 2
time step continuity errors : sum local = 1.53829, global = 0.174896, cumulative = -7.36514
ExecutionTime = 0.52 s  ClockTime = 1 s

Time = 6

smoothSolver:  Solving for Ux, Initial residual = 0.0914353, Final residual = 4.00108e-05, No Iterations 2
smoothSolver:  Solving for Uy, Initial residual = 0.0915643, Final residual = 3.92155e-05, No Iterations 2
smoothSolver:  Solving for Uz, Initial residual = 0.258167, Final residual = 9.96075e-05, No Iterations 2
GAMG:  Solving for p, Initial residual = 0.0229274, Final residual = 0.00136699, No Iterations 3
GAMG:  Solving for p, Initial residual = 0.0760884, Final residual = 0.00491358, No Iterations 1
GAMG:  Solving for p, Initial residual = 0.0252044, Final residual = 0.00242685, No Iterations 1
GAMG:  Solving for p, Initial residual = 0.0135337, Final residual = 0.00133514, No Iterations 1
GAMG:  Solving for p, Initial residual = 0.00809798, Final residual = 0.000351763, No Iterations 2
time step continuity errors : sum local = 3.26818, global = 0.26625, cumulative = -7.09889
ExecutionTime = 0.6 s  ClockTime = 1 s

Time = 7

smoothSolver:  Solving for Ux, Initial residual = 0.0543342, Final residual = 2.58373e-05, No Iterations 2
smoothSolver:  Solving for Uy, Initial residual = 0.0543393, Final residual = 2.53859e-05, No Iterations 2
smoothSolver:  Solving for Uz, Initial residual = 0.150735, Final residual = 6.17406e-05, No Iterations 2
GAMG:  Solving for p, Initial residual = 0.035891, Final residual = 0.00231815, No Iterations 3
GAMG:  Solving for p, Initial residual = 0.0493775, Final residual = 0.00321541, No Iterations 1
GAMG:  Solving for p, Initial residual = 0.0161621, Final residual = 0.00156217, No Iterations 1
GAMG:  Solving for p, Initial residual = 0.00905469, Final residual = 0.000898069, No Iterations 1
GAMG:  Solving for p, Initial residual = 0.00562859, Final residual = 0.000245925, No Iterations 2
time step continuity errors : sum local = 3.93991, global = 0.349345, cumulative = -6.74955
ExecutionTime = 0.67 s  ClockTime = 1 s

Time = 8

smoothSolver:  Solving for Ux, Initial residual = 0.0314751, Final residual = 1.69544e-05, No Iterations 2
smoothSolver:  Solving for Uy, Initial residual = 0.0307046, Final residual = 1.68868e-05, No Iterations 2
smoothSolver:  Solving for Uz, Initial residual = 0.0631248, Final residual = 3.21666e-05, No Iterations 2
GAMG:  Solving for p, Initial residual = 0.0946972, Final residual = 0.00543193, No Iterations 3
GAMG:  Solving for p, Initial residual = 0.038955, Final residual = 0.00254418, No Iterations 1
GAMG:  Solving for p, Initial residual = 0.0128283, Final residual = 0.00123842, No Iterations 1
GAMG:  Solving for p, Initial residual = 0.00736401, Final residual = 0.000731128, No Iterations 1
GAMG:  Solving for p, Initial residual = 0.00466368, Final residual = 0.000205321, No Iterations 2
time step continuity errors : sum local = 3.6571, global = 0.346841, cumulative = -6.40271
ExecutionTime = 0.74 s  ClockTime = 1 s

Time = 9

smoothSolver:  Solving for Ux, Initial residual = 0.0327478, Final residual = 1.83062e-05, No Iterations 2
smoothSolver:  Solving for Uy, Initial residual = 0.0323944, Final residual = 1.80335e-05, No Iterations 2
smoothSolver:  Solving for Uz, Initial residual = 0.0635744, Final residual = 3.22157e-05, No Iterations 2
GAMG:  Solving for p, Initial residual = 0.0952756, Final residual = 0.00724386, No Iterations 2
GAMG:  Solving for p, Initial residual = 0.030039, Final residual = 0.00196205, No Iterations 1
GAMG:  Solving for p, Initial residual = 0.0105843, Final residual = 0.00047251, No Iterations 2
GAMG:  Solving for p, Initial residual = 0.00843598, Final residual = 0.000568718, No Iterations 1
GAMG:  Solving for p, Initial residual = 0.00372182, Final residual = 0.000164366, No Iterations 2
time step continuity errors : sum local = 2.56499, global = 0.298748, cumulative = -6.10396
ExecutionTime = 0.82 s  ClockTime = 1 s

Time = 10

smoothSolver:  Solving for Ux, Initial residual = 0.0461976, Final residual = 2.31738e-05, No Iterations 2
smoothSolver:  Solving for Uy, Initial residual = 0.0465011, Final residual = 2.27532e-05, No Iterations 2
smoothSolver:  Solving for Uz, Initial residual = 0.123782, Final residual = 5.28523e-05, No Iterations 2
GAMG:  Solving for p, Initial residual = 0.0498162, Final residual = 0.00444589, No Iterations 1
GAMG:  Solving for p, Initial residual = 0.0177913, Final residual = 0.000834337, No Iterations 2
GAMG:  Solving for p, Initial residual = 0.0121794, Final residual = 0.00080853, No Iterations 1
GAMG:  Solving for p, Initial residual = 0.0051429, Final residual = 0.000226126, No Iterations 2
GAMG:  Solving for p, Initial residual = 0.00437543, Final residual = 0.000305478, No Iterations 1
time step continuity errors : sum local = 3.26807, global = 0.790188, cumulative = -5.31377
ExecutionTime = 0.89 s  ClockTime = 1 s

Time = 11

smoothSolver:  Solving for Ux, Initial residual = 0.054982, Final residual = 2.6235e-05, No Iterations 2
smoothSolver:  Solving for Uy, Initial residual = 0.0556574, Final residual = 2.58464e-05, No Iterations 2
smoothSolver:  Solving for Uz, Initial residual = 0.165642, Final residual = 6.65998e-05, No Iterations 2
GAMG:  Solving for p, Initial residual = 0.0425804, Final residual = 0.00330742, No Iterations 1
GAMG:  Solving for p, Initial residual = 0.0156911, Final residual = 0.00148614, No Iterations 1
GAMG:  Solving for p, Initial residual = 0.00899491, Final residual = 0.000879464, No Iterations 1
GAMG:  Solving for p, Initial residual = 0.00605795, Final residual = 0.000548534, No Iterations 1
GAMG:  Solving for p, Initial residual = 0.00386901, Final residual = 0.000362183, No Iterations 1
time step continuity errors : sum local = 1.67434, global = -0.331605, cumulative = -5.64537
ExecutionTime = 0.95 s  ClockTime = 1 s

Time = 12

smoothSolver:  Solving for Ux, Initial residual = 0.0551241, Final residual = 2.68314e-05, No Iterations 2
smoothSolver:  Solving for Uy, Initial residual = 0.0560409, Final residual = 2.61002e-05, No Iterations 2
smoothSolver:  Solving for Uz, Initial residual = 0.173612, Final residual = 6.83308e-05, No Iterations 2
GAMG:  Solving for p, Initial residual = 0.0437281, Final residual = 0.00211277, No Iterations 2
GAMG:  Solving for p, Initial residual = 0.21164, Final residual = 0.0133472, No Iterations 1
GAMG:  Solving for p, Initial residual = 0.0597192, Final residual = 0.00271258, No Iterations 2
GAMG:  Solving for p, Initial residual = 0.0274205, Final residual = 0.00178357, No Iterations 1
GAMG:  Solving for p, Initial residual = 0.0108854, Final residual = 0.000467389, No Iterations 2
time step continuity errors : sum local = 1.11301, global = -0.148304, cumulative = -5.79368
ExecutionTime = 1.03 s  ClockTime = 1 s

Time = 13

smoothSolver:  Solving for Ux, Initial residual = 0.0452972, Final residual = 2.31866e-05, No Iterations 2
smoothSolver:  Solving for Uy, Initial residual = 0.0459679, Final residual = 2.23316e-05, No Iterations 2
smoothSolver:  Solving for Uz, Initial residual = 0.134297, Final residual = 5.43386e-05, No Iterations 2
GAMG:  Solving for p, Initial residual = 0.0539044, Final residual = 0.00353878, No Iterations 2
GAMG:  Solving for p, Initial residual = 0.0627536, Final residual = 0.00407156, No Iterations 1
GAMG:  Solving for p, Initial residual = 0.0205423, Final residual = 0.000948202, No Iterations 2
GAMG:  Solving for p, Initial residual = 0.0143731, Final residual = 0.000960435, No Iterations 1
GAMG:  Solving for p, Initial residual = 0.00587225, Final residual = 0.000257276, No Iterations 2
time step continuity errors : sum local = 1.60983, global = -0.214466, cumulative = -6.00814
ExecutionTime = 1.1 s  ClockTime = 1 s

Time = 14

smoothSolver:  Solving for Ux, Initial residual = 0.0329853, Final residual = 1.81793e-05, No Iterations 2
smoothSolver:  Solving for Uy, Initial residual = 0.0327512, Final residual = 1.75397e-05, No Iterations 2
smoothSolver:  Solving for Uz, Initial residual = 0.0730202, Final residual = 3.47041e-05, No Iterations 2
GAMG:  Solving for p, Initial residual = 0.0905656, Final residual = 0.00672638, No Iterations 2
GAMG:  Solving for p, Initial residual = 0.044829, Final residual = 0.00295995, No Iterations 1
GAMG:  Solving for p, Initial residual = 0.0150805, Final residual = 0.000698655, No Iterations 2
GAMG:  Solving for p, Initial residual = 0.0114375, Final residual = 0.000772905, No Iterations 1
GAMG:  Solving for p, Initial residual = 0.00478965, Final residual = 0.000211069, No Iterations 2
time step continuity errors : sum local = 1.6963, global = -0.222482, cumulative = -6.23063
ExecutionTime = 1.17 s  ClockTime = 1 s

Time = 15

smoothSolver:  Solving for Ux, Initial residual = 0.0276675, Final residual = 1.58006e-05, No Iterations 2
smoothSolver:  Solving for Uy, Initial residual = 0.0269727, Final residual = 1.53501e-05, No Iterations 2
smoothSolver:  Solving for Uz, Initial residual = 0.0407412, Final residual = 2.4167e-05, No Iterations 2
GAMG:  Solving for p, Initial residual = 0.257282, Final residual = 0.0180133, No Iterations 2
GAMG:  Solving for p, Initial residual = 0.0347343, Final residual = 0.00234267, No Iterations 1
GAMG:  Solving for p, Initial residual = 0.0120891, Final residual = 0.000563597, No Iterations 2
GAMG:  Solving for p, Initial residual = 0.00963381, Final residual = 0.000661871, No Iterations 1
GAMG:  Solving for p, Initial residual = 0.00414132, Final residual = 0.00018451, No Iterations 2
time step continuity errors : sum local = 1.43744, global = -0.181875, cumulative = -6.4125
ExecutionTime = 1.24 s  ClockTime = 1 s

Time = 16

smoothSolver:  Solving for Ux, Initial residual = 0.0289164, Final residual = 1.6033e-05, No Iterations 2
smoothSolver:  Solving for Uy, Initial residual = 0.0278706, Final residual = 1.54296e-05, No Iterations 2
smoothSolver:  Solving for Uz, Initial residual = 0.0653096, Final residual = 2.96944e-05, No Iterations 2
GAMG:  Solving for p, Initial residual = 0.0693319, Final residual = 0.00380586, No Iterations 2
GAMG:  Solving for p, Initial residual = 0.0250619, Final residual = 0.00176443, No Iterations 1
GAMG:  Solving for p, Initial residual = 0.00945044, Final residual = 0.000450277, No Iterations 2
GAMG:  Solving for p, Initial residual = 0.007938, Final residual = 0.000555618, No Iterations 1
GAMG:  Solving for p, Initial residual = 0.00353629, Final residual = 0.000159924, No Iterations 2
time step continuity errors : sum local = 0.976401, global = -0.114057, cumulative = -6.52656
ExecutionTime = 1.31 s  ClockTime = 1 s

Time = 17

smoothSolver:  Solving for Ux, Initial residual = 0.0298169, Final residual = 1.57739e-05, No Iterations 2
smoothSolver:  Solving for Uy, Initial residual = 0.0287999, Final residual = 1.52433e-05, No Iterations 2
smoothSolver:  Solving for Uz, Initial residual = 0.0853545, Final residual = 3.48191e-05, No Iterations 2
GAMG:  Solving for p, Initial residual = 0.0466825, Final residual = 0.00464478, No Iterations 1
GAMG:  Solving for p, Initial residual = 0.0171108, Final residual = 0.000663425, No Iterations 2
GAMG:  Solving for p, Initial residual = 0.0103009, Final residual = 0.000771738, No Iterations 1
GAMG:  Solving for p, Initial residual = 0.00488634, Final residual = 0.000223795, No Iterations 2
GAMG:  Solving for p, Initial residual = 0.00401924, Final residual = 0.000300053, No Iterations 1
time step continuity errors : sum local = 1.07651, global = -0.202429, cumulative = -6.72899
ExecutionTime = 1.39 s  ClockTime = 1 s

Time = 18

smoothSolver:  Solving for Ux, Initial residual = 0.0276283, Final residual = 1.43207e-05, No Iterations 2
smoothSolver:  Solving for Uy, Initial residual = 0.0267758, Final residual = 1.37599e-05, No Iterations 2
smoothSolver:  Solving for Uz, Initial residual = 0.0839556, Final residual = 3.29427e-05, No Iterations 2
GAMG:  Solving for p, Initial residual = 0.0419598, Final residual = 0.0041363, No Iterations 1
GAMG:  Solving for p, Initial residual = 0.0268368, Final residual = 0.00129009, No Iterations 2
GAMG:  Solving for p, Initial residual = 0.0345514, Final residual = 0.00208898, No Iterations 1
GAMG:  Solving for p, Initial residual = 0.0133762, Final residual = 0.000565714, No Iterations 2
GAMG:  Solving for p, Initial residual = 0.0146823, Final residual = 0.000940412, No Iterations 1
time step continuity errors : sum local = 0.925972, global = 0.255952, cumulative = -6.47303
ExecutionTime = 1.46 s  ClockTime = 1 s

Time = 19

smoothSolver:  Solving for Ux, Initial residual = 0.0233008, Final residual = 1.22677e-05, No Iterations 2
smoothSolver:  Solving for Uy, Initial residual = 0.0224746, Final residual = 1.1787e-05, No Iterations 2
smoothSolver:  Solving for Uz, Initial residual = 0.0679745, Final residual = 2.69083e-05, No Iterations 2
GAMG:  Solving for p, Initial residual = 0.0438605, Final residual = 0.00247875, No Iterations 2
GAMG:  Solving for p, Initial residual = 0.106017, Final residual = 0.00679991, No Iterations 1
GAMG:  Solving for p, Initial residual = 0.0323544, Final residual = 0.00147071, No Iterations 2
GAMG:  Solving for p, Initial residual = 0.0192729, Final residual = 0.00126306, No Iterations 1
GAMG:  Solving for p, Initial residual = 0.00763615, Final residual = 0.000333332, No Iterations 2
time step continuity errors : sum local = 0.620994, global = 0.0867165, cumulative = -6.38632
ExecutionTime = 1.53 s  ClockTime = 2 s

Time = 20

smoothSolver:  Solving for Ux, Initial residual = 0.0186925, Final residual = 1.01754e-05, No Iterations 2
smoothSolver:  Solving for Uy, Initial residual = 0.0179562, Final residual = 9.7259e-06, No Iterations 2
smoothSolver:  Solving for Uz, Initial residual = 0.0447579, Final residual = 1.88115e-05, No Iterations 2
GAMG:  Solving for p, Initial residual = 0.0542839, Final residual = 0.00371609, No Iterations 2
GAMG:  Solving for p, Initial residual = 0.0554169, Final residual = 0.00363669, No Iterations 1
GAMG:  Solving for p, Initial residual = 0.0180231, Final residual = 0.000827044, No Iterations 2
GAMG:  Solving for p, Initial residual = 0.0129126, Final residual = 0.000865316, No Iterations 1
GAMG:  Solving for p, Initial residual = 0.00526054, Final residual = 0.000231517, No Iterations 2
time step continuity errors : sum local = 0.753252, global = 0.104648, cumulative = -6.28167
ExecutionTime = 1.61 s  ClockTime = 2 s

Time = 21

smoothSolver:  Solving for Ux, Initial residual = 0.0160974, Final residual = 8.89128e-06, No Iterations 2
smoothSolver:  Solving for Uy, Initial residual = 0.0156904, Final residual = 8.57089e-06, No Iterations 2
smoothSolver:  Solving for Uz, Initial residual = 0.0247322, Final residual = 1.25497e-05, No Iterations 2
GAMG:  Solving for p, Initial residual = 0.0956697, Final residual = 0.00675334, No Iterations 2
GAMG:  Solving for p, Initial residual = 0.0400828, Final residual = 0.00269486, No Iterations 1
GAMG:  Solving for p, Initial residual = 0.013554, Final residual = 0.000624976, No Iterations 2
GAMG:  Solving for p, Initial residual = 0.0103866, Final residual = 0.000708486, No Iterations 1
GAMG:  Solving for p, Initial residual = 0.00435147, Final residual = 0.000192148, No Iterations 2
time step continuity errors : sum local = 0.718465, global = 0.0982709, cumulative = -6.1834
ExecutionTime = 1.68 s  ClockTime = 2 s

Time = 22

smoothSolver:  Solving for Ux, Initial residual = 0.0157347, Final residual = 8.26705e-06, No Iterations 2
smoothSolver:  Solving for Uy, Initial residual = 0.0156269, Final residual = 8.10316e-06, No Iterations 2
smoothSolver:  Solving for Uz, Initial residual = 0.02165, Final residual = 1.14648e-05, No Iterations 2
GAMG:  Solving for p, Initial residual = 0.152754, Final residual = 0.00938233, No Iterations 2
GAMG:  Solving for p, Initial residual = 0.0301654, Final residual = 0.00209462, No Iterations 1
GAMG:  Solving for p, Initial residual = 0.01084, Final residual = 0.000503946, No Iterations 2
GAMG:  Solving for p, Initial residual = 0.0086978, Final residual = 0.000603457, No Iterations 1
GAMG:  Solving for p, Initial residual = 0.00377078, Final residual = 0.000166479, No Iterations 2
time step continuity errors : sum local = 0.561675, global = 0.0727819, cumulative = -6.11062
ExecutionTime = 1.76 s  ClockTime = 2 s

Time = 23

smoothSolver:  Solving for Ux, Initial residual = 0.0161869, Final residual = 8.11747e-06, No Iterations 2
smoothSolver:  Solving for Uy, Initial residual = 0.0163158, Final residual = 7.96299e-06, No Iterations 2
smoothSolver:  Solving for Uz, Initial residual = 0.0295673, Final residual = 1.32609e-05, No Iterations 2
GAMG:  Solving for p, Initial residual = 0.0662644, Final residual = 0.0065357, No Iterations 1
GAMG:  Solving for p, Initial residual = 0.0230229, Final residual = 0.00115043, No Iterations 2
GAMG:  Solving for p, Initial residual = 0.0147621, Final residual = 0.00104036, No Iterations 1
GAMG:  Solving for p, Initial residual = 0.00616892, Final residual = 0.000276763, No Iterations 2
GAMG:  Solving for p, Initial residual = 0.00515659, Final residual = 0.000369419, No Iterations 1
time step continuity errors : sum local = 0.889067, global = 0.217863, cumulative = -5.89275
ExecutionTime = 1.83 s  ClockTime = 2 s

Time = 24

smoothSolver:  Solving for Ux, Initial residual = 0.0163515, Final residual = 7.99495e-06, No Iterations 2
smoothSolver:  Solving for Uy, Initial residual = 0.0165383, Final residual = 7.79584e-06, No Iterations 2
smoothSolver:  Solving for Uz, Initial residual = 0.0340773, Final residual = 1.43273e-05, No Iterations 2
GAMG:  Solving for p, Initial residual = 0.051876, Final residual = 0.00152738, No Iterations 2
GAMG:  Solving for p, Initial residual = 0.0257932, Final residual = 0.00194498, No Iterations 1
GAMG:  Solving for p, Initial residual = 0.0100619, Final residual = 0.000373686, No Iterations 2
GAMG:  Solving for p, Initial residual = 0.0072385, Final residual = 0.000540488, No Iterations 1
GAMG:  Solving for p, Initial residual = 0.00352496, Final residual = 0.000131336, No Iterations 2
time step continuity errors : sum local = 0.153131, global = -0.023887, cumulative = -5.91664
ExecutionTime = 1.9 s  ClockTime = 2 s

Time = 25

smoothSolver:  Solving for Ux, Initial residual = 0.0158439, Final residual = 7.58822e-06, No Iterations 2
smoothSolver:  Solving for Uy, Initial residual = 0.0159176, Final residual = 7.38999e-06, No Iterations 2
smoothSolver:  Solving for Uz, Initial residual = 0.0326488, Final residual = 1.3564e-05, No Iterations 2
GAMG:  Solving for p, Initial residual = 0.0509316, Final residual = 0.00222302, No Iterations 2
GAMG:  Solving for p, Initial residual = 0.153517, Final residual = 0.00997207, No Iterations 1
GAMG:  Solving for p, Initial residual = 0.0457195, Final residual = 0.00198652, No Iterations 2
GAMG:  Solving for p, Initial residual = 0.0222418, Final residual = 0.00143064, No Iterations 1
GAMG:  Solving for p, Initial residual = 0.00889087, Final residual = 0.000376749, No Iterations 2
time step continuity errors : sum local = 0.221921, global = -0.0316107, cumulative = -5.94825
ExecutionTime = 1.97 s  ClockTime = 2 s

Time = 26

smoothSolver:  Solving for Ux, Initial residual = 0.0148451, Final residual = 7.21399e-06, No Iterations 2
smoothSolver:  Solving for Uy, Initial residual = 0.0147412, Final residual = 6.91508e-06, No Iterations 2
smoothSolver:  Solving for Uz, Initial residual = 0.0261158, Final residual = 1.11653e-05, No Iterations 2
GAMG:  Solving for p, Initial residual = 0.0602238, Final residual = 0.00322395, No Iterations 2
GAMG:  Solving for p, Initial residual = 0.0517002, Final residual = 0.00340331, No Iterations 1
GAMG:  Solving for p, Initial residual = 0.0165825, Final residual = 0.000750918, No Iterations 2
GAMG:  Solving for p, Initial residual = 0.0116529, Final residual = 0.000774591, No Iterations 1
GAMG:  Solving for p, Initial residual = 0.00471756, Final residual = 0.000206382, No Iterations 2
time step continuity errors : sum local = 0.314634, global = -0.0458541, cumulative = -5.99411
ExecutionTime = 2.04 s  ClockTime = 2 s

Time = 27

smoothSolver:  Solving for Ux, Initial residual = 0.0138666, Final residual = 6.80332e-06, No Iterations 2
smoothSolver:  Solving for Uy, Initial residual = 0.013627, Final residual = 6.501e-06, No Iterations 2
smoothSolver:  Solving for Uz, Initial residual = 0.0185064, Final residual = 8.70272e-06, No Iterations 2
GAMG:  Solving for p, Initial residual = 0.0942871, Final residual = 0.00547615, No Iterations 2
GAMG:  Solving for p, Initial residual = 0.036208, Final residual = 0.00243123, No Iterations 1
GAMG:  Solving for p, Initial residual = 0.0120846, Final residual = 0.00055523, No Iterations 2
GAMG:  Solving for p, Initial residual = 0.00925778, Final residual = 0.000626383, No Iterations 1
GAMG:  Solving for p, Initial residual = 0.00384225, Final residual = 0.000168983, No Iterations 2
time step continuity errors : sum local = 0.345735, global = -0.0495512, cumulative = -6.04366
ExecutionTime = 2.12 s  ClockTime = 2 s

Time = 28

smoothSolver:  Solving for Ux, Initial residual = 0.0132226, Final residual = 6.58062e-06, No Iterations 2
smoothSolver:  Solving for Uy, Initial residual = 0.0128825, Final residual = 6.25582e-06, No Iterations 2
smoothSolver:  Solving for Uz, Initial residual = 0.0149394, Final residual = 7.5241e-06, No Iterations 2
GAMG:  Solving for p, Initial residual = 0.153314, Final residual = 0.00849335, No Iterations 2
GAMG:  Solving for p, Initial residual = 0.0276462, Final residual = 0.00190589, No Iterations 1
GAMG:  Solving for p, Initial residual = 0.00969433, Final residual = 0.00045192, No Iterations 2
GAMG:  Solving for p, Initial residual = 0.00784253, Final residual = 0.000539238, No Iterations 1
GAMG:  Solving for p, Initial residual = 0.00334047, Final residual = 0.000147579, No Iterations 2
time step continuity errors : sum local = 0.313299, global = -0.043487, cumulative = -6.08714
ExecutionTime = 2.19 s  ClockTime = 2 s

Time = 29

smoothSolver:  Solving for Ux, Initial residual = 0.0128576, Final residual = 6.39624e-06, No Iterations 2
smoothSolver:  Solving for Uy, Initial residual = 0.0124566, Final residual = 6.10712e-06, No Iterations 2
smoothSolver:  Solving for Uz, Initial residual = 0.0164372, Final residual = 7.74791e-06, No Iterations 2
GAMG:  Solving for p, Initial residual = 0.067102, Final residual = 0.00314553, No Iterations 2
GAMG:  Solving for p, Initial residual = 0.0209959, Final residual = 0.00150008, No Iterations 1
GAMG:  Solving for p, Initial residual = 0.00800447, Final residual = 0.000378573, No Iterations 2
GAMG:  Solving for p, Initial residual = 0.00671832, Final residual = 0.000471007, No Iterations 1
GAMG:  Solving for p, Initial residual = 0.0029451, Final residual = 0.000131757, No Iterations 2
time step continuity errors : sum local = 0.24019, global = -0.0314575, cumulative = -6.1186
ExecutionTime = 2.26 s  ClockTime = 2 s

Time = 30

smoothSolver:  Solving for Ux, Initial residual = 0.0125207, Final residual = 6.31316e-06, No Iterations 2
smoothSolver:  Solving for Uy, Initial residual = 0.0120862, Final residual = 5.98785e-06, No Iterations 2
smoothSolver:  Solving for Uz, Initial residual = 0.018887, Final residual = 8.29379e-06, No Iterations 2
GAMG:  Solving for p, Initial residual = 0.0485349, Final residual = 0.00467757, No Iterations 1
GAMG:  Solving for p, Initial residual = 0.0172169, Final residual = 0.000723162, No Iterations 2
GAMG:  Solving for p, Initial residual = 0.010316, Final residual = 0.000762148, No Iterations 1
GAMG:  Solving for p, Initial residual = 0.00461004, Final residual = 0.000208787, No Iterations 2
GAMG:  Solving for p, Initial residual = 0.00382446, Final residual = 0.000284931, No Iterations 1
time step continuity errors : sum local = 0.371258, global = -0.0796629, cumulative = -6.19826
ExecutionTime = 2.34 s  ClockTime = 2 s

Time = 31

smoothSolver:  Solving for Ux, Initial residual = 0.012061, Final residual = 6.09468e-06, No Iterations 2
smoothSolver:  Solving for Uy, Initial residual = 0.0116272, Final residual = 5.75859e-06, No Iterations 2
smoothSolver:  Solving for Uz, Initial residual = 0.0194013, Final residual = 8.22219e-06, No Iterations 2
GAMG:  Solving for p, Initial residual = 0.0435447, Final residual = 0.00395517, No Iterations 1
GAMG:  Solving for p, Initial residual = 0.0172849, Final residual = 0.0017116, No Iterations 1
GAMG:  Solving for p, Initial residual = 0.00985154, Final residual = 0.000431874, No Iterations 2
GAMG:  Solving for p, Initial residual = 0.00892905, Final residual = 0.000570313, No Iterations 1
GAMG:  Solving for p, Initial residual = 0.00377607, Final residual = 0.000369705, No Iterations 1
time step continuity errors : sum local = 0.281771, global = 0.0696652, cumulative = -6.1286
ExecutionTime = 2.41 s  ClockTime = 2 s

Time = 32

smoothSolver:  Solving for Ux, Initial residual = 0.0115114, Final residual = 5.81658e-06, No Iterations 2
smoothSolver:  Solving for Uy, Initial residual = 0.0111053, Final residual = 5.45394e-06, No Iterations 2
smoothSolver:  Solving for Uz, Initial residual = 0.017902, Final residual = 7.616e-06, No Iterations 2
GAMG:  Solving for p, Initial residual = 0.0437596, Final residual = 0.00407002, No Iterations 1
GAMG:  Solving for p, Initial residual = 0.0287863, Final residual = 0.00132487, No Iterations 2
GAMG:  Solving for p, Initial residual = 0.0467785, Final residual = 0.0029288, No Iterations 1
GAMG:  Solving for p, Initial residual = 0.0187359, Final residual = 0.000795898, No Iterations 2
GAMG:  Solving for p, Initial residual = 0.0164604, Final residual = 0.00110414, No Iterations 1
time step continuity errors : sum local = 0.327287, global = 0.0999262, cumulative = -6.02867
ExecutionTime = 2.47 s  ClockTime = 2 s

Time = 33

smoothSolver:  Solving for Ux, Initial residual = 0.0110129, Final residual = 5.4951e-06, No Iterations 2
smoothSolver:  Solving for Uy, Initial residual = 0.0106435, Final residual = 5.15117e-06, No Iterations 2
smoothSolver:  Solving for Uz, Initial residual = 0.0149944, Final residual = 6.62403e-06, No Iterations 2
GAMG:  Solving for p, Initial residual = 0.048909, Final residual = 0.00213113, No Iterations 2
GAMG:  Solving for p, Initial residual = 0.0656466, Final residual = 0.00433052, No Iterations 1
GAMG:  Solving for p, Initial residual = 0.0210228, Final residual = 0.000932518, No Iterations 2
GAMG:  Solving for p, Initial residual = 0.0136034, Final residual = 0.000912888, No Iterations 1
GAMG:  Solving for p, Initial residual = 0.00561482, Final residual = 0.000244644, No Iterations 2
time step continuity errors : sum local = 0.157275, global = 0.0235882, cumulative = -6.00508
ExecutionTime = 2.55 s  ClockTime = 3 s

Time = 34

smoothSolver:  Solving for Ux, Initial residual = 0.0106917, Final residual = 5.24327e-06, No Iterations 2
smoothSolver:  Solving for Uy, Initial residual = 0.0103811, Final residual = 4.96983e-06, No Iterations 2
smoothSolver:  Solving for Uz, Initial residual = 0.0122689, Final residual = 5.79885e-06, No Iterations 2
GAMG:  Solving for p, Initial residual = 0.0612813, Final residual = 0.00269945, No Iterations 2
GAMG:  Solving for p, Initial residual = 0.0445238, Final residual = 0.0030178, No Iterations 1
GAMG:  Solving for p, Initial residual = 0.0150324, Final residual = 0.000680572, No Iterations 2
GAMG:  Solving for p, Initial residual = 0.0107973, Final residual = 0.000739572, No Iterations 1
GAMG:  Solving for p, Initial residual = 0.00453964, Final residual = 0.000197923, No Iterations 2
time step continuity errors : sum local = 0.159426, global = 0.0235814, cumulative = -5.9815
ExecutionTime = 2.62 s  ClockTime = 3 s

Time = 35

smoothSolver:  Solving for Ux, Initial residual = 0.0105364, Final residual = 5.05131e-06, No Iterations 2
smoothSolver:  Solving for Uy, Initial residual = 0.010288, Final residual = 4.80143e-06, No Iterations 2
smoothSolver:  Solving for Uz, Initial residual = 0.011099, Final residual = 5.35092e-06, No Iterations 2
GAMG:  Solving for p, Initial residual = 0.087337, Final residual = 0.0078436, No Iterations 1
GAMG:  Solving for p, Initial residual = 0.0438578, Final residual = 0.00209434, No Iterations 2
GAMG:  Solving for p, Initial residual = 0.0198471, Final residual = 0.0013425, No Iterations 1
GAMG:  Solving for p, Initial residual = 0.00788499, Final residual = 0.000344924, No Iterations 2
GAMG:  Solving for p, Initial residual = 0.00633897, Final residual = 0.000447439, No Iterations 1
time step continuity errors : sum local = 0.352312, global = 0.102605, cumulative = -5.8789
ExecutionTime = 2.7 s  ClockTime = 3 s

Time = 36

smoothSolver:  Solving for Ux, Initial residual = 0.010431, Final residual = 4.93033e-06, No Iterations 2
smoothSolver:  Solving for Uy, Initial residual = 0.0102272, Final residual = 4.7096e-06, No Iterations 2
smoothSolver:  Solving for Uz, Initial residual = 0.0111144, Final residual = 5.21431e-06, No Iterations 2
GAMG:  Solving for p, Initial residual = 0.132836, Final residual = 0.0108814, No Iterations 1
GAMG:  Solving for p, Initial residual = 0.0402429, Final residual = 0.00181192, No Iterations 2
GAMG:  Solving for p, Initial residual = 0.0189391, Final residual = 0.00133952, No Iterations 1
GAMG:  Solving for p, Initial residual = 0.00782682, Final residual = 0.00034156, No Iterations 2
GAMG:  Solving for p, Initial residual = 0.00622614, Final residual = 0.000452493, No Iterations 1
time step continuity errors : sum local = 0.27271, global = 0.0743306, cumulative = -5.80457
ExecutionTime = 2.76 s  ClockTime = 3 s

Time = 37

smoothSolver:  Solving for Ux, Initial residual = 0.0102991, Final residual = 4.83015e-06, No Iterations 2
smoothSolver:  Solving for Uy, Initial residual = 0.0101062, Final residual = 4.62084e-06, No Iterations 2
smoothSolver:  Solving for Uz, Initial residual = 0.0113429, Final residual = 5.21395e-06, No Iterations 2
GAMG:  Solving for p, Initial residual = 0.117597, Final residual = 0.0101105, No Iterations 1
GAMG:  Solving for p, Initial residual = 0.0380692, Final residual = 0.00128084, No Iterations 2
GAMG:  Solving for p, Initial residual = 0.0192106, Final residual = 0.00145811, No Iterations 1
GAMG:  Solving for p, Initial residual = 0.00864501, Final residual = 0.000348148, No Iterations 2
GAMG:  Solving for p, Initial residual = 0.00617603, Final residual = 0.000481504, No Iterations 1
time step continuity errors : sum local = 0.167995, global = 0.0318584, cumulative = -5.77271
ExecutionTime = 2.83 s  ClockTime = 3 s

Time = 38

smoothSolver:  Solving for Ux, Initial residual = 0.0101059, Final residual = 4.76132e-06, No Iterations 2
smoothSolver:  Solving for Uy, Initial residual = 0.00990054, Final residual = 4.53031e-06, No Iterations 2
smoothSolver:  Solving for Uz, Initial residual = 0.0112228, Final residual = 5.1079e-06, No Iterations 2
GAMG:  Solving for p, Initial residual = 0.111331, Final residual = 0.00921968, No Iterations 1
GAMG:  Solving for p, Initial residual = 0.0419112, Final residual = 0.0041239, No Iterations 1
GAMG:  Solving for p, Initial residual = 0.0205768, Final residual = 0.000911365, No Iterations 2
GAMG:  Solving for p, Initial residual = 0.0125979, Final residual = 0.000800181, No Iterations 1
GAMG:  Solving for p, Initial residual = 0.00518966, Final residual = 0.00051215, No Iterations 1
time step continuity errors : sum local = 0.178123, global = -0.0408658, cumulative = -5.81357
ExecutionTime = 2.9 s  ClockTime = 3 s

Time = 39

smoothSolver:  Solving for Ux, Initial residual = 0.00988887, Final residual = 4.68025e-06, No Iterations 2
smoothSolver:  Solving for Uy, Initial residual = 0.00964863, Final residual = 4.42359e-06, No Iterations 2
smoothSolver:  Solving for Uz, Initial residual = 0.0108003, Final residual = 4.92988e-06, No Iterations 2
GAMG:  Solving for p, Initial residual = 0.12385, Final residual = 0.00986081, No Iterations 1
GAMG:  Solving for p, Initial residual = 0.0349529, Final residual = 0.00162538, No Iterations 2
GAMG:  Solving for p, Initial residual = 0.0170561, Final residual = 0.00107807, No Iterations 1
GAMG:  Solving for p, Initial residual = 0.00640848, Final residual = 0.000277628, No Iterations 2
GAMG:  Solving for p, Initial residual = 0.00502893, Final residual = 0.000341454, No Iterations 1
time step continuity errors : sum local = 0.197642, global = -0.0606525, cumulative = -5.87423
ExecutionTime = 2.97 s  ClockTime = 3 s

Time = 40

smoothSolver:  Solving for Ux, Initial residual = 0.00966746, Final residual = 4.5917e-06, No Iterations 2
smoothSolver:  Solving for Uy, Initial residual = 0.00940236, Final residual = 4.32111e-06, No Iterations 2
smoothSolver:  Solving for Uz, Initial residual = 0.0103098, Final residual = 4.70506e-06, No Iterations 2
GAMG:  Solving for p, Initial residual = 0.111804, Final residual = 0.00884548, No Iterations 1
GAMG:  Solving for p, Initial residual = 0.0262755, Final residual = 0.00127005, No Iterations 2
GAMG:  Solving for p, Initial residual = 0.0145662, Final residual = 0.000942737, No Iterations 1
GAMG:  Solving for p, Initial residual = 0.00555876, Final residual = 0.00024758, No Iterations 2
GAMG:  Solving for p, Initial residual = 0.0045569, Final residual = 0.000315534, No Iterations 1
time step continuity errors : sum local = 0.228028, global = -0.0700381, cumulative = -5.94427
ExecutionTime = 3.05 s  ClockTime = 3 s

Time = 41

smoothSolver:  Solving for Ux, Initial residual = 0.0094721, Final residual = 4.45923e-06, No Iterations 2
smoothSolver:  Solving for Uy, Initial residual = 0.00918551, Final residual = 4.24617e-06, No Iterations 2
smoothSolver:  Solving for Uz, Initial residual = 0.0100383, Final residual = 4.54729e-06, No Iterations 2
GAMG:  Solving for p, Initial residual = 0.0822661, Final residual = 0.00632528, No Iterations 1
GAMG:  Solving for p, Initial residual = 0.0212553, Final residual = 0.00102298, No Iterations 2
GAMG:  Solving for p, Initial residual = 0.0127195, Final residual = 0.00084126, No Iterations 1
GAMG:  Solving for p, Initial residual = 0.00497377, Final residual = 0.000223484, No Iterations 2
GAMG:  Solving for p, Initial residual = 0.00416357, Final residual = 0.000291682, No Iterations 1
time step continuity errors : sum local = 0.227722, global = -0.0690882, cumulative = -6.01335
ExecutionTime = 3.11 s  ClockTime = 3 s

Time = 42

smoothSolver:  Solving for Ux, Initial residual = 0.00930124, Final residual = 4.37979e-06, No Iterations 2
smoothSolver:  Solving for Uy, Initial residual = 0.00898968, Final residual = 4.17048e-06, No Iterations 2
smoothSolver:  Solving for Uz, Initial residual = 0.0100067, Final residual = 4.49371e-06, No Iterations 2
GAMG:  Solving for p, Initial residual = 0.0658077, Final residual = 0.00485947, No Iterations 1
GAMG:  Solving for p, Initial residual = 0.0181751, Final residual = 0.000825274, No Iterations 2
GAMG:  Solving for p, Initial residual = 0.0110253, Final residual = 0.000747969, No Iterations 1
GAMG:  Solving for p, Initial residual = 0.00446538, Final residual = 0.000201053, No Iterations 2
GAMG:  Solving for p, Initial residual = 0.00375973, Final residual = 0.000267575, No Iterations 1
time step continuity errors : sum local = 0.202572, global = -0.0593672, cumulative = -6.07272
ExecutionTime = 3.18 s  ClockTime = 3 s

Time = 43

smoothSolver:  Solving for Ux, Initial residual = 0.00914829, Final residual = 4.29348e-06, No Iterations 2
smoothSolver:  Solving for Uy, Initial residual = 0.00880738, Final residual = 4.10607e-06, No Iterations 2
smoothSolver:  Solving for Uz, Initial residual = 0.0100852, Final residual = 4.48191e-06, No Iterations 2
GAMG:  Solving for p, Initial residual = 0.0569496, Final residual = 0.00416516, No Iterations 1
GAMG:  Solving for p, Initial residual = 0.0164716, Final residual = 0.00158743, No Iterations 1
GAMG:  Solving for p, Initial residual = 0.00790395, Final residual = 0.000350319, No Iterations 2
GAMG:  Solving for p, Initial residual = 0.00564656, Final residual = 0.000401472, No Iterations 1
GAMG:  Solving for p, Initial residual = 0.00253757, Final residual = 0.000118225, No Iterations 2
time step continuity errors : sum local = 0.078156, global = -0.0109792, cumulative = -6.0837
ExecutionTime = 3.26 s  ClockTime = 3 s

Time = 44

smoothSolver:  Solving for Ux, Initial residual = 0.00899008, Final residual = 4.19542e-06, No Iterations 2
smoothSolver:  Solving for Uy, Initial residual = 0.00862179, Final residual = 4.00267e-06, No Iterations 2
smoothSolver:  Solving for Uz, Initial residual = 0.0100785, Final residual = 4.44702e-06, No Iterations 2
GAMG:  Solving for p, Initial residual = 0.0527684, Final residual = 0.003776, No Iterations 1
GAMG:  Solving for p, Initial residual = 0.0156544, Final residual = 0.00148679, No Iterations 1
GAMG:  Solving for p, Initial residual = 0.00687144, Final residual = 0.000257343, No Iterations 2
GAMG:  Solving for p, Initial residual = 0.00444533, Final residual = 0.000330135, No Iterations 1
GAMG:  Solving for p, Initial residual = 0.00216193, Final residual = 9.48515e-05, No Iterations 2
time step continuity errors : sum local = 0.0536082, global = -0.0073658, cumulative = -6.09107
ExecutionTime = 3.32 s  ClockTime = 3 s

Time = 45

smoothSolver:  Solving for Ux, Initial residual = 0.00883653, Final residual = 4.12456e-06, No Iterations 2
smoothSolver:  Solving for Uy, Initial residual = 0.00843955, Final residual = 3.88742e-06, No Iterations 2
smoothSolver:  Solving for Uz, Initial residual = 0.00991176, Final residual = 4.35928e-06, No Iterations 2
GAMG:  Solving for p, Initial residual = 0.0515425, Final residual = 0.00356329, No Iterations 1
GAMG:  Solving for p, Initial residual = 0.0155806, Final residual = 0.00137927, No Iterations 1
GAMG:  Solving for p, Initial residual = 0.00716316, Final residual = 0.000708788, No Iterations 1
GAMG:  Solving for p, Initial residual = 0.00432023, Final residual = 0.00019314, No Iterations 2
GAMG:  Solving for p, Initial residual = 0.00356313, Final residual = 0.000240444, No Iterations 1
time step continuity errors : sum local = 0.11641, global = 0.027717, cumulative = -6.06335
ExecutionTime = 3.4 s  ClockTime = 3 s

Time = 46

smoothSolver:  Solving for Ux, Initial residual = 0.00869128, Final residual = 4.05476e-06, No Iterations 2
smoothSolver:  Solving for Uy, Initial residual = 0.00827688, Final residual = 3.7836e-06, No Iterations 2
smoothSolver:  Solving for Uz, Initial residual = 0.0096401, Final residual = 4.23938e-06, No Iterations 2
GAMG:  Solving for p, Initial residual = 0.0521727, Final residual = 0.00352238, No Iterations 1
GAMG:  Solving for p, Initial residual = 0.0162261, Final residual = 0.00148511, No Iterations 1
GAMG:  Solving for p, Initial residual = 0.00903437, Final residual = 0.000897692, No Iterations 1
GAMG:  Solving for p, Initial residual = 0.00599792, Final residual = 0.000597761, No Iterations 1
GAMG:  Solving for p, Initial residual = 0.00400988, Final residual = 0.000183741, No Iterations 2
time step continuity errors : sum local = 0.0755602, global = 0.0101385, cumulative = -6.05321
ExecutionTime = 3.46 s  ClockTime = 3 s

Time = 47

smoothSolver:  Solving for Ux, Initial residual = 0.00857181, Final residual = 4.01211e-06, No Iterations 2
smoothSolver:  Solving for Uy, Initial residual = 0.00813719, Final residual = 3.72311e-06, No Iterations 2
smoothSolver:  Solving for Uz, Initial residual = 0.00932691, Final residual = 4.13162e-06, No Iterations 2
GAMG:  Solving for p, Initial residual = 0.0544519, Final residual = 0.0036593, No Iterations 1
GAMG:  Solving for p, Initial residual = 0.0172478, Final residual = 0.00168871, No Iterations 1
GAMG:  Solving for p, Initial residual = 0.0107146, Final residual = 0.000471087, No Iterations 2
GAMG:  Solving for p, Initial residual = 0.00983513, Final residual = 0.000675825, No Iterations 1
GAMG:  Solving for p, Initial residual = 0.00430005, Final residual = 0.000200008, No Iterations 2
time step continuity errors : sum local = 0.0696617, global = 0.0110334, cumulative = -6.04218
ExecutionTime = 3.53 s  ClockTime = 4 s

Time = 48

smoothSolver:  Solving for Ux, Initial residual = 0.00847172, Final residual = 3.89166e-06, No Iterations 2
smoothSolver:  Solving for Uy, Initial residual = 0.00802024, Final residual = 3.65337e-06, No Iterations 2
smoothSolver:  Solving for Uz, Initial residual = 0.00905303, Final residual = 4.00091e-06, No Iterations 2
GAMG:  Solving for p, Initial residual = 0.0582333, Final residual = 0.00392349, No Iterations 1
GAMG:  Solving for p, Initial residual = 0.0181367, Final residual = 0.00177083, No Iterations 1
GAMG:  Solving for p, Initial residual = 0.0109434, Final residual = 0.000486448, No Iterations 2
GAMG:  Solving for p, Initial residual = 0.0101307, Final residual = 0.000712383, No Iterations 1
GAMG:  Solving for p, Initial residual = 0.00451194, Final residual = 0.000211017, No Iterations 2
time step continuity errors : sum local = 0.0690578, global = 0.0108482, cumulative = -6.03133
ExecutionTime = 3.6 s  ClockTime = 4 s

Time = 49

smoothSolver:  Solving for Ux, Initial residual = 0.00836639, Final residual = 3.81552e-06, No Iterations 2
smoothSolver:  Solving for Uy, Initial residual = 0.00791168, Final residual = 3.58964e-06, No Iterations 2
smoothSolver:  Solving for Uz, Initial residual = 0.00884678, Final residual = 3.91207e-06, No Iterations 2
GAMG:  Solving for p, Initial residual = 0.0623081, Final residual = 0.00421839, No Iterations 1
GAMG:  Solving for p, Initial residual = 0.0187276, Final residual = 0.00174493, No Iterations 1
GAMG:  Solving for p, Initial residual = 0.00981688, Final residual = 0.000432855, No Iterations 2
GAMG:  Solving for p, Initial residual = 0.00873763, Final residual = 0.000629218, No Iterations 1
GAMG:  Solving for p, Initial residual = 0.00399849, Final residual = 0.000186675, No Iterations 2
time step continuity errors : sum local = 0.0630561, global = 0.0097145, cumulative = -6.02161
ExecutionTime = 3.67 s  ClockTime = 4 s

Time = 50

smoothSolver:  Solving for Ux, Initial residual = 0.0082709, Final residual = 3.72919e-06, No Iterations 2
smoothSolver:  Solving for Uy, Initial residual = 0.00780212, Final residual = 3.52063e-06, No Iterations 2
smoothSolver:  Solving for Uz, Initial residual = 0.008705, Final residual = 3.81245e-06, No Iterations 2
GAMG:  Solving for p, Initial residual = 0.0655651, Final residual = 0.00445043, No Iterations 1
GAMG:  Solving for p, Initial residual = 0.0191277, Final residual = 0.001773, No Iterations 1
GAMG:  Solving for p, Initial residual = 0.00855568, Final residual = 0.000350508, No Iterations 2
GAMG:  Solving for p, Initial residual = 0.00654273, Final residual = 0.00048675, No Iterations 1
GAMG:  Solving for p, Initial residual = 0.00313431, Final residual = 0.00014402, No Iterations 2
time step continuity errors : sum local = 0.0531855, global = 0.00808455, cumulative = -6.01353
ExecutionTime = 3.74 s  ClockTime = 4 s

Time = 51

smoothSolver:  Solving for Ux, Initial residual = 0.00817042, Final residual = 3.68358e-06, No Iterations 2
smoothSolver:  Solving for Uy, Initial residual = 0.00768667, Final residual = 3.47172e-06, No Iterations 2
smoothSolver:  Solving for Uz, Initial residual = 0.00859062, Final residual = 3.72807e-06, No Iterations 2
GAMG:  Solving for p, Initial residual = 0.0666942, Final residual = 0.00450553, No Iterations 1
GAMG:  Solving for p, Initial residual = 0.0191476, Final residual = 0.00179684, No Iterations 1
GAMG:  Solving for p, Initial residual = 0.00809083, Final residual = 0.000310619, No Iterations 2
GAMG:  Solving for p, Initial residual = 0.00486859, Final residual = 0.000383928, No Iterations 1
GAMG:  Solving for p, Initial residual = 0.0024647, Final residual = 9.8743e-05, No Iterations 2
time step continuity errors : sum local = 0.0400895, global = 0.00525299, cumulative = -6.00828
ExecutionTime = 3.81 s  ClockTime = 4 s

Time = 52

smoothSolver:  Solving for Ux, Initial residual = 0.00806434, Final residual = 3.59936e-06, No Iterations 2
smoothSolver:  Solving for Uy, Initial residual = 0.0075613, Final residual = 3.40382e-06, No Iterations 2
smoothSolver:  Solving for Uz, Initial residual = 0.00849011, Final residual = 3.65469e-06, No Iterations 2
GAMG:  Solving for p, Initial residual = 0.0660425, Final residual = 0.00440125, No Iterations 1
GAMG:  Solving for p, Initial residual = 0.0187134, Final residual = 0.00170619, No Iterations 1
GAMG:  Solving for p, Initial residual = 0.00782293, Final residual = 0.000307502, No Iterations 2
GAMG:  Solving for p, Initial residual = 0.00490207, Final residual = 0.000340946, No Iterations 1
GAMG:  Solving for p, Initial residual = 0.00231834, Final residual = 9.99122e-05, No Iterations 2
time step continuity errors : sum local = 0.0435252, global = -0.00725396, cumulative = -6.01553
ExecutionTime = 3.88 s  ClockTime = 4 s

Time = 53

smoothSolver:  Solving for Ux, Initial residual = 0.00795579, Final residual = 3.52501e-06, No Iterations 2
smoothSolver:  Solving for Uy, Initial residual = 0.00743647, Final residual = 3.33564e-06, No Iterations 2
smoothSolver:  Solving for Uz, Initial residual = 0.00840442, Final residual = 3.58351e-06, No Iterations 2
GAMG:  Solving for p, Initial residual = 0.0639235, Final residual = 0.00420127, No Iterations 1
GAMG:  Solving for p, Initial residual = 0.0179885, Final residual = 0.0015896, No Iterations 1
GAMG:  Solving for p, Initial residual = 0.00755911, Final residual = 0.000339181, No Iterations 2
GAMG:  Solving for p, Initial residual = 0.00520244, Final residual = 0.000351806, No Iterations 1
GAMG:  Solving for p, Initial residual = 0.00232148, Final residual = 0.000109648, No Iterations 2
time step continuity errors : sum local = 0.0516845, global = -0.00757416, cumulative = -6.0231
ExecutionTime = 3.95 s  ClockTime = 4 s

Time = 54

smoothSolver:  Solving for Ux, Initial residual = 0.00784727, Final residual = 3.44917e-06, No Iterations 2
smoothSolver:  Solving for Uy, Initial residual = 0.00730342, Final residual = 3.28106e-06, No Iterations 2
smoothSolver:  Solving for Uz, Initial residual = 0.00831727, Final residual = 3.53986e-06, No Iterations 2
GAMG:  Solving for p, Initial residual = 0.06095, Final residual = 0.00398939, No Iterations 1
GAMG:  Solving for p, Initial residual = 0.0170991, Final residual = 0.00150544, No Iterations 1
GAMG:  Solving for p, Initial residual = 0.00728458, Final residual = 0.000335069, No Iterations 2
GAMG:  Solving for p, Initial residual = 0.00516373, Final residual = 0.000355034, No Iterations 1
GAMG:  Solving for p, Initial residual = 0.00227929, Final residual = 0.000110334, No Iterations 2
time step continuity errors : sum local = 0.0548219, global = -0.00783629, cumulative = -6.03094
ExecutionTime = 4.03 s  ClockTime = 4 s

Time = 55

smoothSolver:  Solving for Ux, Initial residual = 0.00774084, Final residual = 3.36478e-06, No Iterations 2
smoothSolver:  Solving for Uy, Initial residual = 0.00717008, Final residual = 3.23189e-06, No Iterations 2
smoothSolver:  Solving for Uz, Initial residual = 0.00824468, Final residual = 3.49835e-06, No Iterations 2
GAMG:  Solving for p, Initial residual = 0.0579398, Final residual = 0.00377903, No Iterations 1
GAMG:  Solving for p, Initial residual = 0.0163028, Final residual = 0.00142553, No Iterations 1
GAMG:  Solving for p, Initial residual = 0.00693702, Final residual = 0.000315122, No Iterations 2
GAMG:  Solving for p, Initial residual = 0.00489839, Final residual = 0.000344416, No Iterations 1
GAMG:  Solving for p, Initial residual = 0.00219316, Final residual = 0.000107181, No Iterations 2
time step continuity errors : sum local = 0.0545168, global = -0.00781513, cumulative = -6.03876
ExecutionTime = 4.09 s  ClockTime = 4 s

Time = 56

smoothSolver:  Solving for Ux, Initial residual = 0.00762975, Final residual = 3.30891e-06, No Iterations 2
smoothSolver:  Solving for Uy, Initial residual = 0.00704132, Final residual = 3.18214e-06, No Iterations 2
smoothSolver:  Solving for Uz, Initial residual = 0.00817409, Final residual = 3.46426e-06, No Iterations 2
GAMG:  Solving for p, Initial residual = 0.0551843, Final residual = 0.00358073, No Iterations 1
GAMG:  Solving for p, Initial residual = 0.0156039, Final residual = 0.0013444, No Iterations 1
GAMG:  Solving for p, Initial residual = 0.00653964, Final residual = 0.000284142, No Iterations 2
GAMG:  Solving for p, Initial residual = 0.0044669, Final residual = 0.000319926, No Iterations 1
GAMG:  Solving for p, Initial residual = 0.00205542, Final residual = 0.000100763, No Iterations 2
time step continuity errors : sum local = 0.0513134, global = -0.00733811, cumulative = -6.04609
ExecutionTime = 4.16 s  ClockTime = 4 s

Time = 57

smoothSolver:  Solving for Ux, Initial residual = 0.00751913, Final residual = 3.2572e-06, No Iterations 2
smoothSolver:  Solving for Uy, Initial residual = 0.00692225, Final residual = 3.11286e-06, No Iterations 2
smoothSolver:  Solving for Uz, Initial residual = 0.00809923, Final residual = 3.41982e-06, No Iterations 2
GAMG:  Solving for p, Initial residual = 0.0532648, Final residual = 0.00342354, No Iterations 1
GAMG:  Solving for p, Initial residual = 0.0151045, Final residual = 0.00128536, No Iterations 1
GAMG:  Solving for p, Initial residual = 0.00622071, Final residual = 0.000242525, No Iterations 2
GAMG:  Solving for p, Initial residual = 0.00393332, Final residual = 0.000285447, No Iterations 1
GAMG:  Solving for p, Initial residual = 0.00188785, Final residual = 9.11523e-05, No Iterations 2
time step continuity errors : sum local = 0.0455373, global = -0.00661599, cumulative = -6.05271
ExecutionTime = 4.24 s  ClockTime = 4 s

Time = 58

smoothSolver:  Solving for Ux, Initial residual = 0.00740842, Final residual = 3.2274e-06, No Iterations 2
smoothSolver:  Solving for Uy, Initial residual = 0.00680778, Final residual = 3.064e-06, No Iterations 2
smoothSolver:  Solving for Uz, Initial residual = 0.00801598, Final residual = 3.37591e-06, No Iterations 2
GAMG:  Solving for p, Initial residual = 0.051755, Final residual = 0.00332348, No Iterations 1
GAMG:  Solving for p, Initial residual = 0.0147493, Final residual = 0.00124005, No Iterations 1
GAMG:  Solving for p, Initial residual = 0.00605491, Final residual = 0.00060146, No Iterations 1
GAMG:  Solving for p, Initial residual = 0.00315078, Final residual = 0.000128645, No Iterations 2
GAMG:  Solving for p, Initial residual = 0.00219345, Final residual = 0.000165147, No Iterations 1
time step continuity errors : sum local = 0.0810731, global = -0.0159529, cumulative = -6.06866
ExecutionTime = 4.3 s  ClockTime = 4 s

Time = 59

smoothSolver:  Solving for Ux, Initial residual = 0.00730161, Final residual = 3.20128e-06, No Iterations 2
smoothSolver:  Solving for Uy, Initial residual = 0.00669468, Final residual = 3.00051e-06, No Iterations 2
smoothSolver:  Solving for Uz, Initial residual = 0.00792093, Final residual = 3.31617e-06, No Iterations 2
GAMG:  Solving for p, Initial residual = 0.0508358, Final residual = 0.00327126, No Iterations 1
GAMG:  Solving for p, Initial residual = 0.0145479, Final residual = 0.00121742, No Iterations 1
GAMG:  Solving for p, Initial residual = 0.00599503, Final residual = 0.000587261, No Iterations 1
GAMG:  Solving for p, Initial residual = 0.00309684, Final residual = 0.000116404, No Iterations 2
GAMG:  Solving for p, Initial residual = 0.00199784, Final residual = 0.000153421, No Iterations 1
time step continuity errors : sum local = 0.0740516, global = -0.000764587, cumulative = -6.06943
ExecutionTime = 4.37 s  ClockTime = 4 s

Time = 60

smoothSolver:  Solving for Ux, Initial residual = 0.00720469, Final residual = 3.17611e-06, No Iterations 2
smoothSolver:  Solving for Uy, Initial residual = 0.00659445, Final residual = 2.93439e-06, No Iterations 2
smoothSolver:  Solving for Uz, Initial residual = 0.00781855, Final residual = 3.27963e-06, No Iterations 2
GAMG:  Solving for p, Initial residual = 0.050382, Final residual = 0.0032474, No Iterations 1
GAMG:  Solving for p, Initial residual = 0.0144385, Final residual = 0.00121926, No Iterations 1
GAMG:  Solving for p, Initial residual = 0.00599344, Final residual = 0.000595902, No Iterations 1
GAMG:  Solving for p, Initial residual = 0.00313459, Final residual = 0.000130172, No Iterations 2
GAMG:  Solving for p, Initial residual = 0.00218778, Final residual = 0.000166558, No Iterations 1
time step continuity errors : sum local = 0.0791949, global = 0.013696, cumulative = -6.05573
ExecutionTime = 4.44 s  ClockTime = 4 s

Time = 61

smoothSolver:  Solving for Ux, Initial residual = 0.0071138, Final residual = 3.16616e-06, No Iterations 2
smoothSolver:  Solving for Uy, Initial residual = 0.00649959, Final residual = 2.87978e-06, No Iterations 2
smoothSolver:  Solving for Uz, Initial residual = 0.00771445, Final residual = 3.24971e-06, No Iterations 2
GAMG:  Solving for p, Initial residual = 0.0501217, Final residual = 0.00324096, No Iterations 1
GAMG:  Solving for p, Initial residual = 0.0143833, Final residual = 0.00123255, No Iterations 1
GAMG:  Solving for p, Initial residual = 0.00602674, Final residual = 0.000213908, No Iterations 2
GAMG:  Solving for p, Initial residual = 0.00371169, Final residual = 0.000270473, No Iterations 1
GAMG:  Solving for p, Initial residual = 0.00183047, Final residual = 7.66786e-05, No Iterations 2
time step continuity errors : sum local = 0.0359913, global = 0.00636747, cumulative = -6.04936
ExecutionTime = 4.5 s  ClockTime = 5 s

Time = 62

smoothSolver:  Solving for Ux, Initial residual = 0.00702883, Final residual = 3.13241e-06, No Iterations 2
smoothSolver:  Solving for Uy, Initial residual = 0.0064153, Final residual = 2.84049e-06, No Iterations 2
smoothSolver:  Solving for Uz, Initial residual = 0.00761081, Final residual = 3.21032e-06, No Iterations 2
GAMG:  Solving for p, Initial residual = 0.0500174, Final residual = 0.00323828, No Iterations 1
GAMG:  Solving for p, Initial residual = 0.0143726, Final residual = 0.0012458, No Iterations 1
GAMG:  Solving for p, Initial residual = 0.00603974, Final residual = 0.000220791, No Iterations 2
GAMG:  Solving for p, Initial residual = 0.00379181, Final residual = 0.000277995, No Iterations 1
GAMG:  Solving for p, Initial residual = 0.0018573, Final residual = 7.84208e-05, No Iterations 2
time step continuity errors : sum local = 0.0366193, global = 0.00612637, cumulative = -6.04324
ExecutionTime = 4.58 s  ClockTime = 5 s

Time = 63

smoothSolver:  Solving for Ux, Initial residual = 0.00694821, Final residual = 3.08938e-06, No Iterations 2
smoothSolver:  Solving for Uy, Initial residual = 0.00633465, Final residual = 2.78718e-06, No Iterations 2
smoothSolver:  Solving for Uz, Initial residual = 0.00751106, Final residual = 3.16118e-06, No Iterations 2
GAMG:  Solving for p, Initial residual = 0.0500626, Final residual = 0.0032368, No Iterations 1
GAMG:  Solving for p, Initial residual = 0.0143734, Final residual = 0.00125205, No Iterations 1
GAMG:  Solving for p, Initial residual = 0.00602029, Final residual = 0.000219765, No Iterations 2
GAMG:  Solving for p, Initial residual = 0.00372366, Final residual = 0.00027568, No Iterations 1
GAMG:  Solving for p, Initial residual = 0.0018306, Final residual = 7.58436e-05, No Iterations 2
time step continuity errors : sum local = 0.0354981, global = 0.00552782, cumulative = -6.03771
ExecutionTime = 4.65 s  ClockTime = 5 s

Time = 64

smoothSolver:  Solving for Ux, Initial residual = 0.00686515, Final residual = 3.04346e-06, No Iterations 2
smoothSolver:  Solving for Uy, Initial residual = 0.0062502, Final residual = 2.74403e-06, No Iterations 2
smoothSolver:  Solving for Uz, Initial residual = 0.00741679, Final residual = 3.12412e-06, No Iterations 2
GAMG:  Solving for p, Initial residual = 0.0498981, Final residual = 0.0032121, No Iterations 1
GAMG:  Solving for p, Initial residual = 0.014316, Final residual = 0.00124569, No Iterations 1
GAMG:  Solving for p, Initial residual = 0.00597825, Final residual = 0.000217043, No Iterations 2
GAMG:  Solving for p, Initial residual = 0.00359653, Final residual = 0.000269898, No Iterations 1
GAMG:  Solving for p, Initial residual = 0.00178788, Final residual = 7.14777e-05, No Iterations 2
time step continuity errors : sum local = 0.033804, global = 0.00444861, cumulative = -6.03326
ExecutionTime = 4.71 s  ClockTime = 5 s

Time = 65

smoothSolver:  Solving for Ux, Initial residual = 0.00678506, Final residual = 2.99862e-06, No Iterations 2
smoothSolver:  Solving for Uy, Initial residual = 0.00616345, Final residual = 2.70124e-06, No Iterations 2
smoothSolver:  Solving for Uz, Initial residual = 0.00732374, Final residual = 3.09418e-06, No Iterations 2
GAMG:  Solving for p, Initial residual = 0.049859, Final residual = 0.00320012, No Iterations 1
GAMG:  Solving for p, Initial residual = 0.0142658, Final residual = 0.00122824, No Iterations 1
GAMG:  Solving for p, Initial residual = 0.00593978, Final residual = 0.00021455, No Iterations 2
GAMG:  Solving for p, Initial residual = 0.00351372, Final residual = 0.000262805, No Iterations 1
GAMG:  Solving for p, Initial residual = 0.00175244, Final residual = 6.66106e-05, No Iterations 2
time step continuity errors : sum local = 0.0317796, global = 0.00118465, cumulative = -6.03208
ExecutionTime = 4.79 s  ClockTime = 5 s

Time = 66

smoothSolver:  Solving for Ux, Initial residual = 0.00670329, Final residual = 2.96727e-06, No Iterations 2
smoothSolver:  Solving for Uy, Initial residual = 0.00607963, Final residual = 2.66017e-06, No Iterations 2
smoothSolver:  Solving for Uz, Initial residual = 0.00723478, Final residual = 3.05671e-06, No Iterations 2
GAMG:  Solving for p, Initial residual = 0.0492515, Final residual = 0.00316363, No Iterations 1
GAMG:  Solving for p, Initial residual = 0.0140919, Final residual = 0.00119586, No Iterations 1
GAMG:  Solving for p, Initial residual = 0.0058584, Final residual = 0.000206601, No Iterations 2
GAMG:  Solving for p, Initial residual = 0.00346723, Final residual = 0.0002524, No Iterations 1
GAMG:  Solving for p, Initial residual = 0.0017253, Final residual = 6.19223e-05, No Iterations 2
time step continuity errors : sum local = 0.029984, global = -0.0062349, cumulative = -6.03831
ExecutionTime = 4.85 s  ClockTime = 5 s

Time = 67

smoothSolver:  Solving for Ux, Initial residual = 0.0066174, Final residual = 2.93869e-06, No Iterations 2
smoothSolver:  Solving for Uy, Initial residual = 0.00599829, Final residual = 2.63265e-06, No Iterations 2
smoothSolver:  Solving for Uz, Initial residual = 0.0071513, Final residual = 3.01074e-06, No Iterations 2
GAMG:  Solving for p, Initial residual = 0.0487486, Final residual = 0.00312395, No Iterations 1
GAMG:  Solving for p, Initial residual = 0.013969, Final residual = 0.00117369, No Iterations 1
GAMG:  Solving for p, Initial residual = 0.0058063, Final residual = 0.000200057, No Iterations 2
GAMG:  Solving for p, Initial residual = 0.00346372, Final residual = 0.000244687, No Iterations 1
GAMG:  Solving for p, Initial residual = 0.00170742, Final residual = 6.1208e-05, No Iterations 2
time step continuity errors : sum local = 0.0299385, global = -0.00808378, cumulative = -6.0464
ExecutionTime = 4.93 s  ClockTime = 5 s

Time = 68

smoothSolver:  Solving for Ux, Initial residual = 0.0065305, Final residual = 2.89594e-06, No Iterations 2
smoothSolver:  Solving for Uy, Initial residual = 0.0059225, Final residual = 2.61534e-06, No Iterations 2
smoothSolver:  Solving for Uz, Initial residual = 0.00706519, Final residual = 2.9375e-06, No Iterations 2
GAMG:  Solving for p, Initial residual = 0.0481917, Final residual = 0.00307197, No Iterations 1
GAMG:  Solving for p, Initial residual = 0.0138013, Final residual = 0.0011524, No Iterations 1
GAMG:  Solving for p, Initial residual = 0.00574558, Final residual = 0.00019847, No Iterations 2
GAMG:  Solving for p, Initial residual = 0.00344379, Final residual = 0.000240867, No Iterations 1
GAMG:  Solving for p, Initial residual = 0.00168892, Final residual = 6.4821e-05, No Iterations 2
time step continuity errors : sum local = 0.0321487, global = -0.00748272, cumulative = -6.05388
ExecutionTime = 5 s  ClockTime = 5 s

Time = 69

smoothSolver:  Solving for Ux, Initial residual = 0.00645526, Final residual = 2.91117e-06, No Iterations 2
smoothSolver:  Solving for Uy, Initial residual = 0.00585549, Final residual = 2.59833e-06, No Iterations 2
smoothSolver:  Solving for Uz, Initial residual = 0.0069839, Final residual = 2.91027e-06, No Iterations 2
GAMG:  Solving for p, Initial residual = 0.0476953, Final residual = 0.00305126, No Iterations 1
GAMG:  Solving for p, Initial residual = 0.0137633, Final residual = 0.00115281, No Iterations 1
GAMG:  Solving for p, Initial residual = 0.00576524, Final residual = 0.000203744, No Iterations 2
GAMG:  Solving for p, Initial residual = 0.00344884, Final residual = 0.000248113, No Iterations 1
GAMG:  Solving for p, Initial residual = 0.00171109, Final residual = 6.98152e-05, No Iterations 2
time step continuity errors : sum local = 0.035053, global = -0.00813435, cumulative = -6.06201
ExecutionTime = 5.06 s  ClockTime = 5 s

Time = 70

smoothSolver:  Solving for Ux, Initial residual = 0.0063853, Final residual = 2.89801e-06, No Iterations 2
smoothSolver:  Solving for Uy, Initial residual = 0.00578351, Final residual = 2.59722e-06, No Iterations 2
smoothSolver:  Solving for Uz, Initial residual = 0.00689998, Final residual = 2.8934e-06, No Iterations 2
GAMG:  Solving for p, Initial residual = 0.0474092, Final residual = 0.0030246, No Iterations 1
GAMG:  Solving for p, Initial residual = 0.0137267, Final residual = 0.00114022, No Iterations 1
GAMG:  Solving for p, Initial residual = 0.00575617, Final residual = 0.000574522, No Iterations 1
GAMG:  Solving for p, Initial residual = 0.00305562, Final residual = 0.000131537, No Iterations 2
GAMG:  Solving for p, Initial residual = 0.00217248, Final residual = 0.000161905, No Iterations 1
time step continuity errors : sum local = 0.0820189, global = -0.0187912, cumulative = -6.0808
ExecutionTime = 5.13 s  ClockTime = 5 s

Time = 71

smoothSolver:  Solving for Ux, Initial residual = 0.00631287, Final residual = 2.89934e-06, No Iterations 2
smoothSolver:  Solving for Uy, Initial residual = 0.00571317, Final residual = 2.58471e-06, No Iterations 2
smoothSolver:  Solving for Uz, Initial residual = 0.00682124, Final residual = 2.87664e-06, No Iterations 2
GAMG:  Solving for p, Initial residual = 0.0466364, Final residual = 0.00296241, No Iterations 1
GAMG:  Solving for p, Initial residual = 0.0135352, Final residual = 0.00111061, No Iterations 1
GAMG:  Solving for p, Initial residual = 0.00566003, Final residual = 0.000559457, No Iterations 1
GAMG:  Solving for p, Initial residual = 0.00299029, Final residual = 0.000125829, No Iterations 2
GAMG:  Solving for p, Initial residual = 0.0021018, Final residual = 0.000156599, No Iterations 1
time step continuity errors : sum local = 0.0802947, global = -0.0177145, cumulative = -6.09852
ExecutionTime = 5.2 s  ClockTime = 5 s

Time = 72

smoothSolver:  Solving for Ux, Initial residual = 0.00623308, Final residual = 2.87386e-06, No Iterations 2
smoothSolver:  Solving for Uy, Initial residual = 0.00563828, Final residual = 2.56312e-06, No Iterations 2
smoothSolver:  Solving for Uz, Initial residual = 0.00674095, Final residual = 2.8501e-06, No Iterations 2
GAMG:  Solving for p, Initial residual = 0.0461551, Final residual = 0.0029243, No Iterations 1
GAMG:  Solving for p, Initial residual = 0.0134114, Final residual = 0.00109089, No Iterations 1
GAMG:  Solving for p, Initial residual = 0.00560733, Final residual = 0.000546987, No Iterations 1
GAMG:  Solving for p, Initial residual = 0.00294852, Final residual = 0.000118067, No Iterations 2
GAMG:  Solving for p, Initial residual = 0.00202965, Final residual = 0.000150595, No Iterations 1
time step continuity errors : sum local = 0.0772383, global = -0.0157836, cumulative = -6.1143
ExecutionTime = 5.27 s  ClockTime = 5 s

Time = 73

smoothSolver:  Solving for Ux, Initial residual = 0.00614783, Final residual = 2.85026e-06, No Iterations 2
smoothSolver:  Solving for Uy, Initial residual = 0.00556584, Final residual = 2.51499e-06, No Iterations 2
smoothSolver:  Solving for Uz, Initial residual = 0.00665737, Final residual = 2.80762e-06, No Iterations 2
GAMG:  Solving for p, Initial residual = 0.0456416, Final residual = 0.00288476, No Iterations 1
GAMG:  Solving for p, Initial residual = 0.0132488, Final residual = 0.00108335, No Iterations 1
GAMG:  Solving for p, Initial residual = 0.0055579, Final residual = 0.000541957, No Iterations 1
GAMG:  Solving for p, Initial residual = 0.00292425, Final residual = 0.00011505, No Iterations 2
GAMG:  Solving for p, Initial residual = 0.00197669, Final residual = 0.00014827, No Iterations 1
time step continuity errors : sum local = 0.0763924, global = -0.0136364, cumulative = -6.12794
ExecutionTime = 5.34 s  ClockTime = 5 s

Time = 74

smoothSolver:  Solving for Ux, Initial residual = 0.00605801, Final residual = 2.80108e-06, No Iterations 2
smoothSolver:  Solving for Uy, Initial residual = 0.00549219, Final residual = 2.4857e-06, No Iterations 2
smoothSolver:  Solving for Uz, Initial residual = 0.00657291, Final residual = 2.7833e-06, No Iterations 2
GAMG:  Solving for p, Initial residual = 0.0453696, Final residual = 0.002867, No Iterations 1
GAMG:  Solving for p, Initial residual = 0.0131361, Final residual = 0.00108528, No Iterations 1
GAMG:  Solving for p, Initial residual = 0.00551742, Final residual = 0.000543174, No Iterations 1
GAMG:  Solving for p, Initial residual = 0.00289375, Final residual = 0.000113485, No Iterations 2
GAMG:  Solving for p, Initial residual = 0.0019304, Final residual = 0.000145786, No Iterations 1
time step continuity errors : sum local = 0.0752723, global = -0.0106002, cumulative = -6.13854
ExecutionTime = 5.4 s  ClockTime = 5 s

Time = 75

smoothSolver:  Solving for Ux, Initial residual = 0.00597191, Final residual = 2.75739e-06, No Iterations 2
smoothSolver:  Solving for Uy, Initial residual = 0.00542724, Final residual = 2.45171e-06, No Iterations 2
smoothSolver:  Solving for Uz, Initial residual = 0.0064896, Final residual = 2.75036e-06, No Iterations 2
GAMG:  Solving for p, Initial residual = 0.0448614, Final residual = 0.00284171, No Iterations 1
GAMG:  Solving for p, Initial residual = 0.0129753, Final residual = 0.00107851, No Iterations 1
GAMG:  Solving for p, Initial residual = 0.0054472, Final residual = 0.000183899, No Iterations 2
GAMG:  Solving for p, Initial residual = 0.00310848, Final residual = 0.000226365, No Iterations 1
GAMG:  Solving for p, Initial residual = 0.0015879, Final residual = 5.56239e-05, No Iterations 2
time step continuity errors : sum local = 0.0289546, global = -0.00573526, cumulative = -6.14427
ExecutionTime = 5.48 s  ClockTime = 5 s

Time = 76

smoothSolver:  Solving for Ux, Initial residual = 0.00588216, Final residual = 2.711e-06, No Iterations 2
smoothSolver:  Solving for Uy, Initial residual = 0.00536419, Final residual = 2.4241e-06, No Iterations 2
smoothSolver:  Solving for Uz, Initial residual = 0.00640726, Final residual = 2.69867e-06, No Iterations 2
GAMG:  Solving for p, Initial residual = 0.0444999, Final residual = 0.00280797, No Iterations 1
GAMG:  Solving for p, Initial residual = 0.0128477, Final residual = 0.00106531, No Iterations 1
GAMG:  Solving for p, Initial residual = 0.00536416, Final residual = 0.000183614, No Iterations 2
GAMG:  Solving for p, Initial residual = 0.00305307, Final residual = 0.000224354, No Iterations 1
GAMG:  Solving for p, Initial residual = 0.00156845, Final residual = 5.49183e-05, No Iterations 2
time step continuity errors : sum local = 0.0287635, global = -0.00419484, cumulative = -6.14847
ExecutionTime = 5.54 s  ClockTime = 6 s

Time = 77

smoothSolver:  Solving for Ux, Initial residual = 0.00579635, Final residual = 2.68362e-06, No Iterations 2
smoothSolver:  Solving for Uy, Initial residual = 0.00529988, Final residual = 2.38543e-06, No Iterations 2
smoothSolver:  Solving for Uz, Initial residual = 0.00632889, Final residual = 2.65363e-06, No Iterations 2
GAMG:  Solving for p, Initial residual = 0.0441434, Final residual = 0.00276841, No Iterations 1
GAMG:  Solving for p, Initial residual = 0.0127074, Final residual = 0.00105325, No Iterations 1
GAMG:  Solving for p, Initial residual = 0.00528622, Final residual = 0.000180339, No Iterations 2
GAMG:  Solving for p, Initial residual = 0.00299406, Final residual = 0.000220417, No Iterations 1
GAMG:  Solving for p, Initial residual = 0.00154095, Final residual = 5.41371e-05, No Iterations 2
time step continuity errors : sum local = 0.0284307, global = -0.00312422, cumulative = -6.15159
ExecutionTime = 5.61 s  ClockTime = 6 s

Time = 78

smoothSolver:  Solving for Ux, Initial residual = 0.00572003, Final residual = 2.6442e-06, No Iterations 2
smoothSolver:  Solving for Uy, Initial residual = 0.0052431, Final residual = 2.34667e-06, No Iterations 2
smoothSolver:  Solving for Uz, Initial residual = 0.00625357, Final residual = 2.60293e-06, No Iterations 2
GAMG:  Solving for p, Initial residual = 0.0438091, Final residual = 0.00273514, No Iterations 1
GAMG:  Solving for p, Initial residual = 0.012593, Final residual = 0.00103805, No Iterations 1
GAMG:  Solving for p, Initial residual = 0.00520546, Final residual = 0.000175063, No Iterations 2
GAMG:  Solving for p, Initial residual = 0.00294096, Final residual = 0.000215355, No Iterations 1
GAMG:  Solving for p, Initial residual = 0.00151207, Final residual = 5.29964e-05, No Iterations 2
time step continuity errors : sum local = 0.027897, global = -0.00199062, cumulative = -6.15358
ExecutionTime = 5.69 s  ClockTime = 6 s

Time = 79

smoothSolver:  Solving for Ux, Initial residual = 0.00564635, Final residual = 2.60447e-06, No Iterations 2
smoothSolver:  Solving for Uy, Initial residual = 0.00518753, Final residual = 2.31439e-06, No Iterations 2
smoothSolver:  Solving for Uz, Initial residual = 0.00617875, Final residual = 2.56028e-06, No Iterations 2
GAMG:  Solving for p, Initial residual = 0.0434055, Final residual = 0.00270882, No Iterations 1
GAMG:  Solving for p, Initial residual = 0.0125312, Final residual = 0.00102824, No Iterations 1
GAMG:  Solving for p, Initial residual = 0.00518837, Final residual = 0.000513995, No Iterations 1
GAMG:  Solving for p, Initial residual = 0.00273076, Final residual = 0.000108748, No Iterations 2
GAMG:  Solving for p, Initial residual = 0.00179402, Final residual = 0.000138282, No Iterations 1
time step continuity errors : sum local = 0.0728048, global = -0.00180158, cumulative = -6.15539
ExecutionTime = 5.75 s  ClockTime = 6 s

Time = 80

smoothSolver:  Solving for Ux, Initial residual = 0.00556154, Final residual = 2.54962e-06, No Iterations 2
smoothSolver:  Solving for Uy, Initial residual = 0.00513052, Final residual = 2.29056e-06, No Iterations 2
smoothSolver:  Solving for Uz, Initial residual = 0.00610302, Final residual = 2.51173e-06, No Iterations 2
GAMG:  Solving for p, Initial residual = 0.0427625, Final residual = 0.00268011, No Iterations 1
GAMG:  Solving for p, Initial residual = 0.0123753, Final residual = 0.00100535, No Iterations 1
GAMG:  Solving for p, Initial residual = 0.00513227, Final residual = 0.000500539, No Iterations 1
GAMG:  Solving for p, Initial residual = 0.00270239, Final residual = 0.000104483, No Iterations 2
GAMG:  Solving for p, Initial residual = 0.00177245, Final residual = 0.000136084, No Iterations 1
time step continuity errors : sum local = 0.0720994, global = -0.00115347, cumulative = -6.15654
ExecutionTime = 5.82 s  ClockTime = 6 s

Time = 81

smoothSolver:  Solving for Ux, Initial residual = 0.00548174, Final residual = 2.49623e-06, No Iterations 2
smoothSolver:  Solving for Uy, Initial residual = 0.00507312, Final residual = 2.26767e-06, No Iterations 2
smoothSolver:  Solving for Uz, Initial residual = 0.00602321, Final residual = 2.47762e-06, No Iterations 2
GAMG:  Solving for p, Initial residual = 0.0423327, Final residual = 0.00264909, No Iterations 1
GAMG:  Solving for p, Initial residual = 0.0122624, Final residual = 0.000988294, No Iterations 1
GAMG:  Solving for p, Initial residual = 0.00509816, Final residual = 0.000492971, No Iterations 1
GAMG:  Solving for p, Initial residual = 0.00268504, Final residual = 0.000100948, No Iterations 2
GAMG:  Solving for p, Initial residual = 0.0017686, Final residual = 0.000135666, No Iterations 1
time step continuity errors : sum local = 0.0719644, global = -0.000917144, cumulative = -6.15746
ExecutionTime = 5.89 s  ClockTime = 6 s

Time = 82

smoothSolver:  Solving for Ux, Initial residual = 0.00540438, Final residual = 2.44727e-06, No Iterations 2
smoothSolver:  Solving for Uy, Initial residual = 0.00500522, Final residual = 2.23405e-06, No Iterations 2
smoothSolver:  Solving for Uz, Initial residual = 0.00594427, Final residual = 2.43632e-06, No Iterations 2
GAMG:  Solving for p, Initial residual = 0.0418798, Final residual = 0.00260756, No Iterations 1
GAMG:  Solving for p, Initial residual = 0.0121214, Final residual = 0.000968907, No Iterations 1
GAMG:  Solving for p, Initial residual = 0.00504587, Final residual = 0.000484667, No Iterations 1
GAMG:  Solving for p, Initial residual = 0.00264265, Final residual = 9.70554e-05, No Iterations 2
GAMG:  Solving for p, Initial residual = 0.00174013, Final residual = 0.000132879, No Iterations 1
[...]
GAMG:  Solving for p, Initial residual = 0.0217773, Final residual = 0.00140127, No Iterations 1
GAMG:  Solving for p, Initial residual = 0.00628455, Final residual = 0.000551354, No Iterations 1
GAMG:  Solving for p, Initial residual = 0.00267155, Final residual = 0.000106258, No Iterations 2
GAMG:  Solving for p, Initial residual = 0.00168535, Final residual = 0.000126281, No Iterations 1
GAMG:  Solving for p, Initial residual = 0.000842446, Final residual = 4.90788e-05, No Iterations 2
time step continuity errors : sum local = 962.389, global = -115.568, cumulative = -16274.5
ExecutionTime = 141.22 s  ClockTime = 141 s

Time = 1981

smoothSolver:  Solving for Ux, Initial residual = 0.00540221, Final residual = 2.75192e-06, No Iterations 2
smoothSolver:  Solving for Uy, Initial residual = 0.00505734, Final residual = 2.48218e-06, No Iterations 2
smoothSolver:  Solving for Uz, Initial residual = 0.00452398, Final residual = 1.59822e-06, No Iterations 2
GAMG:  Solving for p, Initial residual = 0.0211948, Final residual = 0.00134854, No Iterations 1
GAMG:  Solving for p, Initial residual = 0.0060578, Final residual = 0.000527288, No Iterations 1
GAMG:  Solving for p, Initial residual = 0.0025595, Final residual = 0.000100959, No Iterations 2
GAMG:  Solving for p, Initial residual = 0.00161822, Final residual = 0.000120399, No Iterations 1
GAMG:  Solving for p, Initial residual = 0.000802311, Final residual = 4.54427e-05, No Iterations 2
time step continuity errors : sum local = 926.002, global = -106.095, cumulative = -16380.6
ExecutionTime = 141.3 s  ClockTime = 141 s

Time = 1982

smoothSolver:  Solving for Ux, Initial residual = 0.0054021, Final residual = 2.75614e-06, No Iterations 2
smoothSolver:  Solving for Uy, Initial residual = 0.0050545, Final residual = 2.48627e-06, No Iterations 2
smoothSolver:  Solving for Uz, Initial residual = 0.00452121, Final residual = 1.59631e-06, No Iterations 2
GAMG:  Solving for p, Initial residual = 0.0202557, Final residual = 0.00128793, No Iterations 1
GAMG:  Solving for p, Initial residual = 0.00579966, Final residual = 0.000502651, No Iterations 1
GAMG:  Solving for p, Initial residual = 0.0024525, Final residual = 9.691e-05, No Iterations 2
GAMG:  Solving for p, Initial residual = 0.00154549, Final residual = 0.000114892, No Iterations 1
GAMG:  Solving for p, Initial residual = 0.000769946, Final residual = 4.51475e-05, No Iterations 2
time step continuity errors : sum local = 976.55, global = -105.78, cumulative = -16486.4
ExecutionTime = 141.36 s  ClockTime = 141 s

Time = 1983

smoothSolver:  Solving for Ux, Initial residual = 0.00540699, Final residual = 2.74362e-06, No Iterations 2
smoothSolver:  Solving for Uy, Initial residual = 0.00505282, Final residual = 2.48452e-06, No Iterations 2
smoothSolver:  Solving for Uz, Initial residual = 0.00452126, Final residual = 1.5952e-06, No Iterations 2
GAMG:  Solving for p, Initial residual = 0.021557, Final residual = 0.00135076, No Iterations 1
GAMG:  Solving for p, Initial residual = 0.00608492, Final residual = 0.000524734, No Iterations 1
GAMG:  Solving for p, Initial residual = 0.00254656, Final residual = 9.98213e-05, No Iterations 2
GAMG:  Solving for p, Initial residual = 0.0015929, Final residual = 0.00011855, No Iterations 1
GAMG:  Solving for p, Initial residual = 0.000792077, Final residual = 4.53075e-05, No Iterations 2
time step continuity errors : sum local = 947.536, global = -89.3253, cumulative = -16575.7
ExecutionTime = 141.44 s  ClockTime = 142 s

Time = 1984

smoothSolver:  Solving for Ux, Initial residual = 0.00541057, Final residual = 2.7369e-06, No Iterations 2
smoothSolver:  Solving for Uy, Initial residual = 0.00504876, Final residual = 2.48287e-06, No Iterations 2
smoothSolver:  Solving for Uz, Initial residual = 0.00452275, Final residual = 1.59399e-06, No Iterations 2
GAMG:  Solving for p, Initial residual = 0.0224981, Final residual = 0.00143412, No Iterations 1
GAMG:  Solving for p, Initial residual = 0.00638631, Final residual = 0.000557541, No Iterations 1
GAMG:  Solving for p, Initial residual = 0.00269933, Final residual = 0.00010633, No Iterations 2
GAMG:  Solving for p, Initial residual = 0.0016863, Final residual = 0.000125902, No Iterations 1
GAMG:  Solving for p, Initial residual = 0.000838381, Final residual = 4.87187e-05, No Iterations 2
time step continuity errors : sum local = 974.834, global = -98.0098, cumulative = -16673.8
ExecutionTime = 141.51 s  ClockTime = 142 s

Time = 1985

smoothSolver:  Solving for Ux, Initial residual = 0.00541396, Final residual = 2.726e-06, No Iterations 2
smoothSolver:  Solving for Uy, Initial residual = 0.00505117, Final residual = 2.46436e-06, No Iterations 2
smoothSolver:  Solving for Uz, Initial residual = 0.00452619, Final residual = 1.59788e-06, No Iterations 2
GAMG:  Solving for p, Initial residual = 0.0224361, Final residual = 0.00145967, No Iterations 1
GAMG:  Solving for p, Initial residual = 0.00644443, Final residual = 0.000569636, No Iterations 1
GAMG:  Solving for p, Initial residual = 0.00271711, Final residual = 0.000107673, No Iterations 2
GAMG:  Solving for p, Initial residual = 0.00170075, Final residual = 0.000127779, No Iterations 1
GAMG:  Solving for p, Initial residual = 0.000841321, Final residual = 4.74192e-05, No Iterations 2
time step continuity errors : sum local = 951.723, global = -96.5847, cumulative = -16770.3
ExecutionTime = 141.58 s  ClockTime = 142 s

Time = 1986

smoothSolver:  Solving for Ux, Initial residual = 0.0054355, Final residual = 2.73927e-06, No Iterations 2
smoothSolver:  Solving for Uy, Initial residual = 0.00506796, Final residual = 2.47334e-06, No Iterations 2
smoothSolver:  Solving for Uz, Initial residual = 0.00452779, Final residual = 1.60054e-06, No Iterations 2
GAMG:  Solving for p, Initial residual = 0.0224234, Final residual = 0.00147948, No Iterations 1
GAMG:  Solving for p, Initial residual = 0.00650384, Final residual = 0.00057538, No Iterations 1
GAMG:  Solving for p, Initial residual = 0.0027535, Final residual = 0.000110198, No Iterations 2
GAMG:  Solving for p, Initial residual = 0.00174259, Final residual = 0.00012982, No Iterations 1
GAMG:  Solving for p, Initial residual = 0.0008625, Final residual = 4.91421e-05, No Iterations 2
time step continuity errors : sum local = 985.127, global = -100.541, cumulative = -16870.9
ExecutionTime = 141.66 s  ClockTime = 142 s

Time = 1987

smoothSolver:  Solving for Ux, Initial residual = 0.00543919, Final residual = 2.72949e-06, No Iterations 2
smoothSolver:  Solving for Uy, Initial residual = 0.00506839, Final residual = 2.47689e-06, No Iterations 2
smoothSolver:  Solving for Uz, Initial residual = 0.00453163, Final residual = 1.59644e-06, No Iterations 2
GAMG:  Solving for p, Initial residual = 0.0221211, Final residual = 0.00146811, No Iterations 1
GAMG:  Solving for p, Initial residual = 0.00635459, Final residual = 0.000566545, No Iterations 1
GAMG:  Solving for p, Initial residual = 0.00270299, Final residual = 0.000109639, No Iterations 2
GAMG:  Solving for p, Initial residual = 0.00172103, Final residual = 0.00012777, No Iterations 1
GAMG:  Solving for p, Initial residual = 0.00084915, Final residual = 4.7257e-05, No Iterations 2
time step continuity errors : sum local = 965.327, global = -98.9338, cumulative = -16969.8
ExecutionTime = 141.72 s  ClockTime = 142 s

Time = 1988

smoothSolver:  Solving for Ux, Initial residual = 0.00542043, Final residual = 2.7239e-06, No Iterations 2
smoothSolver:  Solving for Uy, Initial residual = 0.00505144, Final residual = 2.47979e-06, No Iterations 2
smoothSolver:  Solving for Uz, Initial residual = 0.00453444, Final residual = 1.59571e-06, No Iterations 2
GAMG:  Solving for p, Initial residual = 0.022121, Final residual = 0.00145643, No Iterations 1
GAMG:  Solving for p, Initial residual = 0.00631044, Final residual = 0.00055838, No Iterations 1
GAMG:  Solving for p, Initial residual = 0.0026986, Final residual = 0.000110024, No Iterations 2
GAMG:  Solving for p, Initial residual = 0.0017202, Final residual = 0.000127124, No Iterations 1
GAMG:  Solving for p, Initial residual = 0.000848431, Final residual = 4.80303e-05, No Iterations 2
time step continuity errors : sum local = 987.03, global = -97.333, cumulative = -17067.1
ExecutionTime = 141.8 s  ClockTime = 142 s

Time = 1989

smoothSolver:  Solving for Ux, Initial residual = 0.00541929, Final residual = 2.72191e-06, No Iterations 2
smoothSolver:  Solving for Uy, Initial residual = 0.0050404, Final residual = 2.47984e-06, No Iterations 2
smoothSolver:  Solving for Uz, Initial residual = 0.00453809, Final residual = 1.5944e-06, No Iterations 2
GAMG:  Solving for p, Initial residual = 0.0220604, Final residual = 0.00144317, No Iterations 1
GAMG:  Solving for p, Initial residual = 0.00626448, Final residual = 0.000553944, No Iterations 1
GAMG:  Solving for p, Initial residual = 0.0026696, Final residual = 0.000109823, No Iterations 2
GAMG:  Solving for p, Initial residual = 0.00170126, Final residual = 0.000125477, No Iterations 1
GAMG:  Solving for p, Initial residual = 0.000834632, Final residual = 4.74248e-05, No Iterations 2
time step continuity errors : sum local = 988.696, global = -95.1989, cumulative = -17162.3
ExecutionTime = 141.87 s  ClockTime = 142 s

Time = 1990

smoothSolver:  Solving for Ux, Initial residual = 0.00541871, Final residual = 2.71733e-06, No Iterations 2
smoothSolver:  Solving for Uy, Initial residual = 0.00504052, Final residual = 2.47134e-06, No Iterations 2
smoothSolver:  Solving for Uz, Initial residual = 0.00453942, Final residual = 1.59149e-06, No Iterations 2
GAMG:  Solving for p, Initial residual = 0.0218518, Final residual = 0.00143187, No Iterations 1
GAMG:  Solving for p, Initial residual = 0.00625644, Final residual = 0.000548446, No Iterations 1
GAMG:  Solving for p, Initial residual = 0.00265376, Final residual = 0.000108079, No Iterations 2
GAMG:  Solving for p, Initial residual = 0.00168721, Final residual = 0.000124185, No Iterations 1
GAMG:  Solving for p, Initial residual = 0.000828441, Final residual = 4.67553e-05, No Iterations 2
time step continuity errors : sum local = 987.075, global = -101.977, cumulative = -17264.3
ExecutionTime = 141.94 s  ClockTime = 142 s

Time = 1991

smoothSolver:  Solving for Ux, Initial residual = 0.00542037, Final residual = 2.71418e-06, No Iterations 2
smoothSolver:  Solving for Uy, Initial residual = 0.00503951, Final residual = 2.47557e-06, No Iterations 2
smoothSolver:  Solving for Uz, Initial residual = 0.00453956, Final residual = 1.58922e-06, No Iterations 2
GAMG:  Solving for p, Initial residual = 0.0215243, Final residual = 0.00140985, No Iterations 1
GAMG:  Solving for p, Initial residual = 0.00617359, Final residual = 0.000539271, No Iterations 1
GAMG:  Solving for p, Initial residual = 0.00259931, Final residual = 0.000106285, No Iterations 2
GAMG:  Solving for p, Initial residual = 0.00165366, Final residual = 0.000122302, No Iterations 1
GAMG:  Solving for p, Initial residual = 0.000809891, Final residual = 4.57241e-05, No Iterations 2
time step continuity errors : sum local = 986.083, global = -103.925, cumulative = -17368.2
ExecutionTime = 142.01 s  ClockTime = 142 s

Time = 1992

smoothSolver:  Solving for Ux, Initial residual = 0.00541264, Final residual = 2.70373e-06, No Iterations 2
smoothSolver:  Solving for Uy, Initial residual = 0.00504311, Final residual = 2.48807e-06, No Iterations 2
smoothSolver:  Solving for Uz, Initial residual = 0.00453881, Final residual = 1.58276e-06, No Iterations 2
GAMG:  Solving for p, Initial residual = 0.0215617, Final residual = 0.0014101, No Iterations 1
GAMG:  Solving for p, Initial residual = 0.00617014, Final residual = 0.000539033, No Iterations 1
GAMG:  Solving for p, Initial residual = 0.00260061, Final residual = 0.000105749, No Iterations 2
GAMG:  Solving for p, Initial residual = 0.00165126, Final residual = 0.000122829, No Iterations 1
GAMG:  Solving for p, Initial residual = 0.000811312, Final residual = 4.58809e-05, No Iterations 2
time step continuity errors : sum local = 994.198, global = -105.501, cumulative = -17473.7
ExecutionTime = 142.08 s  ClockTime = 142 s

Time = 1993

smoothSolver:  Solving for Ux, Initial residual = 0.00542024, Final residual = 2.70694e-06, No Iterations 2
smoothSolver:  Solving for Uy, Initial residual = 0.005051, Final residual = 2.49947e-06, No Iterations 2
smoothSolver:  Solving for Uz, Initial residual = 0.00453711, Final residual = 1.57495e-06, No Iterations 2
GAMG:  Solving for p, Initial residual = 0.0217328, Final residual = 0.0014167, No Iterations 1
GAMG:  Solving for p, Initial residual = 0.00616489, Final residual = 0.00054031, No Iterations 1
GAMG:  Solving for p, Initial residual = 0.00259638, Final residual = 0.000105556, No Iterations 2
GAMG:  Solving for p, Initial residual = 0.00164653, Final residual = 0.000122566, No Iterations 1
GAMG:  Solving for p, Initial residual = 0.000807541, Final residual = 4.53598e-05, No Iterations 2
time step continuity errors : sum local = 980.768, global = -107.722, cumulative = -17581.5
ExecutionTime = 142.15 s  ClockTime = 142 s

Time = 1994

smoothSolver:  Solving for Ux, Initial residual = 0.0054092, Final residual = 2.68873e-06, No Iterations 2
smoothSolver:  Solving for Uy, Initial residual = 0.00504985, Final residual = 2.50313e-06, No Iterations 2
smoothSolver:  Solving for Uz, Initial residual = 0.00453783, Final residual = 1.56918e-06, No Iterations 2
GAMG:  Solving for p, Initial residual = 0.0219513, Final residual = 0.00141799, No Iterations 1
GAMG:  Solving for p, Initial residual = 0.00616358, Final residual = 0.000541366, No Iterations 1
GAMG:  Solving for p, Initial residual = 0.00260545, Final residual = 0.000105162, No Iterations 2
GAMG:  Solving for p, Initial residual = 0.00165457, Final residual = 0.000122977, No Iterations 1
GAMG:  Solving for p, Initial residual = 0.000815535, Final residual = 4.54239e-05, No Iterations 2
time step continuity errors : sum local = 978.332, global = -109.589, cumulative = -17691.1
ExecutionTime = 142.22 s  ClockTime = 142 s

Time = 1995

smoothSolver:  Solving for Ux, Initial residual = 0.00539812, Final residual = 2.6779e-06, No Iterations 2
smoothSolver:  Solving for Uy, Initial residual = 0.00504389, Final residual = 2.50064e-06, No Iterations 2
smoothSolver:  Solving for Uz, Initial residual = 0.00453667, Final residual = 1.57118e-06, No Iterations 2
GAMG:  Solving for p, Initial residual = 0.0219192, Final residual = 0.00140569, No Iterations 1
GAMG:  Solving for p, Initial residual = 0.00613181, Final residual = 0.000538571, No Iterations 1
GAMG:  Solving for p, Initial residual = 0.00259302, Final residual = 0.000103811, No Iterations 2
GAMG:  Solving for p, Initial residual = 0.00164372, Final residual = 0.00012204, No Iterations 1
GAMG:  Solving for p, Initial residual = 0.000808397, Final residual = 4.45453e-05, No Iterations 2
time step continuity errors : sum local = 970.753, global = -107.675, cumulative = -17798.7
ExecutionTime = 142.29 s  ClockTime = 142 s

Time = 1996

smoothSolver:  Solving for Ux, Initial residual = 0.00538359, Final residual = 2.67134e-06, No Iterations 2
smoothSolver:  Solving for Uy, Initial residual = 0.00503847, Final residual = 2.48682e-06, No Iterations 2
smoothSolver:  Solving for Uz, Initial residual = 0.00453731, Final residual = 1.57243e-06, No Iterations 2
GAMG:  Solving for p, Initial residual = 0.0215243, Final residual = 0.00136707, No Iterations 1
GAMG:  Solving for p, Initial residual = 0.00601391, Final residual = 0.000526191, No Iterations 1
GAMG:  Solving for p, Initial residual = 0.00253068, Final residual = 0.000100031, No Iterations 2
GAMG:  Solving for p, Initial residual = 0.0015875, Final residual = 0.000119563, No Iterations 1
GAMG:  Solving for p, Initial residual = 0.000783193, Final residual = 4.30486e-05, No Iterations 2
time step continuity errors : sum local = 960.365, global = -109.983, cumulative = -17908.7
ExecutionTime = 142.36 s  ClockTime = 142 s

Time = 1997

smoothSolver:  Solving for Ux, Initial residual = 0.00537354, Final residual = 2.66788e-06, No Iterations 2
smoothSolver:  Solving for Uy, Initial residual = 0.0050343, Final residual = 2.47757e-06, No Iterations 2
smoothSolver:  Solving for Uz, Initial residual = 0.00453712, Final residual = 1.57611e-06, No Iterations 2
GAMG:  Solving for p, Initial residual = 0.0215115, Final residual = 0.00136689, No Iterations 1
GAMG:  Solving for p, Initial residual = 0.00602514, Final residual = 0.000527755, No Iterations 1
GAMG:  Solving for p, Initial residual = 0.00252437, Final residual = 9.95945e-05, No Iterations 2
GAMG:  Solving for p, Initial residual = 0.00157714, Final residual = 0.000119386, No Iterations 1
GAMG:  Solving for p, Initial residual = 0.000775546, Final residual = 4.26951e-05, No Iterations 2
time step continuity errors : sum local = 961.664, global = -108.787, cumulative = -18017.5
ExecutionTime = 142.43 s  ClockTime = 143 s

Time = 1998

smoothSolver:  Solving for Ux, Initial residual = 0.00536269, Final residual = 2.6636e-06, No Iterations 2
smoothSolver:  Solving for Uy, Initial residual = 0.00503481, Final residual = 2.47255e-06, No Iterations 2
smoothSolver:  Solving for Uz, Initial residual = 0.00453709, Final residual = 1.57815e-06, No Iterations 2
GAMG:  Solving for p, Initial residual = 0.0215012, Final residual = 0.00136602, No Iterations 1
GAMG:  Solving for p, Initial residual = 0.00602999, Final residual = 0.000527758, No Iterations 1
GAMG:  Solving for p, Initial residual = 0.00252513, Final residual = 9.9345e-05, No Iterations 2
GAMG:  Solving for p, Initial residual = 0.00156971, Final residual = 0.000119601, No Iterations 1
GAMG:  Solving for p, Initial residual = 0.000772163, Final residual = 4.26653e-05, No Iterations 2
time step continuity errors : sum local = 968.73, global = -108.469, cumulative = -18126
ExecutionTime = 142.5 s  ClockTime = 143 s

Time = 1999

smoothSolver:  Solving for Ux, Initial residual = 0.0053613, Final residual = 2.66692e-06, No Iterations 2
smoothSolver:  Solving for Uy, Initial residual = 0.00503858, Final residual = 2.46013e-06, No Iterations 2
smoothSolver:  Solving for Uz, Initial residual = 0.00453662, Final residual = 1.58225e-06, No Iterations 2
GAMG:  Solving for p, Initial residual = 0.0215193, Final residual = 0.00137381, No Iterations 1
GAMG:  Solving for p, Initial residual = 0.00605872, Final residual = 0.000529661, No Iterations 1
GAMG:  Solving for p, Initial residual = 0.00253348, Final residual = 9.89641e-05, No Iterations 2
GAMG:  Solving for p, Initial residual = 0.001569, Final residual = 0.00011956, No Iterations 1
GAMG:  Solving for p, Initial residual = 0.000772641, Final residual = 4.26828e-05, No Iterations 2
time step continuity errors : sum local = 978.078, global = -108.958, cumulative = -18234.9
ExecutionTime = 142.58 s  ClockTime = 143 s

Time = 2000

smoothSolver:  Solving for Ux, Initial residual = 0.00535556, Final residual = 2.66179e-06, No Iterations 2
smoothSolver:  Solving for Uy, Initial residual = 0.00504464, Final residual = 2.4509e-06, No Iterations 2
smoothSolver:  Solving for Uz, Initial residual = 0.00453817, Final residual = 1.58322e-06, No Iterations 2
GAMG:  Solving for p, Initial residual = 0.0219269, Final residual = 0.00139937, No Iterations 1
GAMG:  Solving for p, Initial residual = 0.00617974, Final residual = 0.000539853, No Iterations 1
GAMG:  Solving for p, Initial residual = 0.00257118, Final residual = 0.000100459, No Iterations 2
GAMG:  Solving for p, Initial residual = 0.00159222, Final residual = 0.000121098, No Iterations 1
GAMG:  Solving for p, Initial residual = 0.000783374, Final residual = 4.3674e-05, No Iterations 2
time step continuity errors : sum local = 998.366, global = -108.545, cumulative = -18343.5
ExecutionTime = 142.77 s  ClockTime = 143 s

End

